
*** ChampSim Multicore Out-of-Order Simulator ***

Warmup Instructions: 10000000
Simulation Instructions: 50000000
Number of CPUs: 4
LLC sets: 4096
LLC ways: 16
Off-chip DRAM Size: 4096 MB Channels: 1 Width: 64-bit Data Rate: 3200 MT/s

CPU 0 runs /home/anderson-eric-lopes/Desktop/ChampSim-master/dpc3_traces/482.sphinx3-1522B.champsimtrace.xz
CPU 1 runs /home/anderson-eric-lopes/Desktop/ChampSim-master/dpc3_traces/403.gcc-16B.champsimtrace.xz
CPU 2 runs /home/anderson-eric-lopes/Desktop/ChampSim-master/dpc3_traces/605.mcf_s-665B.champsimtrace.xz
CPU 3 runs /home/anderson-eric-lopes/Desktop/ChampSim-master/dpc3_traces/621.wrf_s-8100B.champsimtrace.xz
CPU 0 Bimodal branch predictor
CPU 1 Bimodal branch predictor
CPU 2 Bimodal branch predictor
CPU 3 Bimodal branch predictor
Initialize DRRIP state
Assign rand_sets[0]: 454  LLC: 4096
rand_sets[0]: 454
Assign rand_sets[1]: 1662  LLC: 4096
rand_sets[1]: 1662
Assign rand_sets[2]: 1921  LLC: 4096
rand_sets[2]: 1921
Assign rand_sets[3]: 1131  LLC: 4096
rand_sets[3]: 1131
Assign rand_sets[4]: 2379  LLC: 4096
rand_sets[4]: 2379
Assign rand_sets[5]: 1531  LLC: 4096
rand_sets[5]: 1531
Assign rand_sets[6]: 2530  LLC: 4096
rand_sets[6]: 2530
Assign rand_sets[7]: 3323  LLC: 4096
rand_sets[7]: 3323
Assign rand_sets[8]: 3924  LLC: 4096
rand_sets[8]: 3924
Assign rand_sets[9]: 4086  LLC: 4096
rand_sets[9]: 4086
Assign rand_sets[10]: 2749  LLC: 4096
rand_sets[10]: 2749
Assign rand_sets[11]: 479  LLC: 4096
rand_sets[11]: 479
Assign rand_sets[12]: 892  LLC: 4096
rand_sets[12]: 892
Assign rand_sets[13]: 3868  LLC: 4096
rand_sets[13]: 3868
Assign rand_sets[14]: 3553  LLC: 4096
rand_sets[14]: 3553
Assign rand_sets[15]: 1159  LLC: 4096
rand_sets[15]: 1159
Assign rand_sets[16]: 513  LLC: 4096
rand_sets[16]: 513
Assign rand_sets[17]: 703  LLC: 4096
rand_sets[17]: 703
Assign rand_sets[18]: 561  LLC: 4096
rand_sets[18]: 561
Assign rand_sets[19]: 990  LLC: 4096
rand_sets[19]: 990
Assign rand_sets[20]: 2390  LLC: 4096
rand_sets[20]: 2390
Assign rand_sets[21]: 882  LLC: 4096
rand_sets[21]: 882
Assign rand_sets[22]: 15  LLC: 4096
rand_sets[22]: 15
Assign rand_sets[23]: 2119  LLC: 4096
rand_sets[23]: 2119
Assign rand_sets[24]: 3175  LLC: 4096
rand_sets[24]: 3175
Assign rand_sets[25]: 1382  LLC: 4096
rand_sets[25]: 1382
Assign rand_sets[26]: 647  LLC: 4096
rand_sets[26]: 647
Assign rand_sets[27]: 857  LLC: 4096
rand_sets[27]: 857
Assign rand_sets[28]: 3498  LLC: 4096
rand_sets[28]: 3498
Assign rand_sets[29]: 1160  LLC: 4096
rand_sets[29]: 1160
Assign rand_sets[30]: 1852  LLC: 4096
rand_sets[30]: 1852
Assign rand_sets[31]: 3929  LLC: 4096
rand_sets[31]: 3929
Assign rand_sets[32]: 3818  LLC: 4096
rand_sets[32]: 3818
Assign rand_sets[33]: 1622  LLC: 4096
rand_sets[33]: 1622
Assign rand_sets[34]: 275  LLC: 4096
rand_sets[34]: 275
Assign rand_sets[35]: 2683  LLC: 4096
rand_sets[35]: 2683
Assign rand_sets[36]: 466  LLC: 4096
rand_sets[36]: 466
Assign rand_sets[37]: 3461  LLC: 4096
rand_sets[37]: 3461
Assign rand_sets[38]: 2465  LLC: 4096
rand_sets[38]: 2465
Assign rand_sets[39]: 2520  LLC: 4096
rand_sets[39]: 2520
Assign rand_sets[40]: 1340  LLC: 4096
rand_sets[40]: 1340
Assign rand_sets[41]: 2900  LLC: 4096
rand_sets[41]: 2900
Assign rand_sets[42]: 3413  LLC: 4096
rand_sets[42]: 3413
Assign rand_sets[43]: 47  LLC: 4096
rand_sets[43]: 47
Assign rand_sets[44]: 2871  LLC: 4096
rand_sets[44]: 2871
Assign rand_sets[45]: 2734  LLC: 4096
rand_sets[45]: 2734
Assign rand_sets[46]: 3685  LLC: 4096
rand_sets[46]: 3685
Assign rand_sets[47]: 1115  LLC: 4096
rand_sets[47]: 1115
Assign rand_sets[48]: 986  LLC: 4096
rand_sets[48]: 986
Assign rand_sets[49]: 258  LLC: 4096
rand_sets[49]: 258
Assign rand_sets[50]: 2681  LLC: 4096
rand_sets[50]: 2681
Assign rand_sets[51]: 920  LLC: 4096
rand_sets[51]: 920
Assign rand_sets[52]: 2252  LLC: 4096
rand_sets[52]: 2252
Assign rand_sets[53]: 227  LLC: 4096
rand_sets[53]: 227
Assign rand_sets[54]: 3866  LLC: 4096
rand_sets[54]: 3866
Assign rand_sets[55]: 2934  LLC: 4096
rand_sets[55]: 2934
Assign rand_sets[56]: 1422  LLC: 4096
rand_sets[56]: 1422
Assign rand_sets[57]: 2655  LLC: 4096
rand_sets[57]: 2655
Assign rand_sets[58]: 2265  LLC: 4096
rand_sets[58]: 2265
Assign rand_sets[59]: 1945  LLC: 4096
rand_sets[59]: 1945
Assign rand_sets[60]: 2191  LLC: 4096
rand_sets[60]: 2191
Assign rand_sets[61]: 1311  LLC: 4096
rand_sets[61]: 1311
Assign rand_sets[62]: 2367  LLC: 4096
rand_sets[62]: 2367
Assign rand_sets[63]: 3894  LLC: 4096
rand_sets[63]: 3894
Assign rand_sets[64]: 2286  LLC: 4096
rand_sets[64]: 2286
Assign rand_sets[65]: 67  LLC: 4096
rand_sets[65]: 67
Assign rand_sets[66]: 3960  LLC: 4096
rand_sets[66]: 3960
Assign rand_sets[67]: 3661  LLC: 4096
rand_sets[67]: 3661
Assign rand_sets[68]: 3341  LLC: 4096
rand_sets[68]: 3341
Assign rand_sets[69]: 1018  LLC: 4096
rand_sets[69]: 1018
Assign rand_sets[70]: 4030  LLC: 4096
rand_sets[70]: 4030
Assign rand_sets[71]: 1702  LLC: 4096
rand_sets[71]: 1702
Assign rand_sets[72]: 3546  LLC: 4096
rand_sets[72]: 3546
Assign rand_sets[73]: 228  LLC: 4096
rand_sets[73]: 228
Assign rand_sets[74]: 1414  LLC: 4096
rand_sets[74]: 1414
Assign rand_sets[75]: 1166  LLC: 4096
rand_sets[75]: 1166
Assign rand_sets[76]: 732  LLC: 4096
rand_sets[76]: 732
Assign rand_sets[77]: 2345  LLC: 4096
rand_sets[77]: 2345
Assign rand_sets[78]: 3181  LLC: 4096
rand_sets[78]: 3181
Assign rand_sets[79]: 846  LLC: 4096
rand_sets[79]: 846
Assign rand_sets[80]: 767  LLC: 4096
rand_sets[80]: 767
Assign rand_sets[81]: 3926  LLC: 4096
rand_sets[81]: 3926
Assign rand_sets[82]: 3041  LLC: 4096
rand_sets[82]: 3041
Assign rand_sets[83]: 3440  LLC: 4096
rand_sets[83]: 3440
Assign rand_sets[84]: 1568  LLC: 4096
rand_sets[84]: 1568
Assign rand_sets[85]: 1787  LLC: 4096
rand_sets[85]: 1787
Assign rand_sets[86]: 399  LLC: 4096
rand_sets[86]: 399
Assign rand_sets[87]: 1201  LLC: 4096
rand_sets[87]: 1201
Assign rand_sets[88]: 856  LLC: 4096
rand_sets[88]: 856
Assign rand_sets[89]: 773  LLC: 4096
rand_sets[89]: 773
Assign rand_sets[90]: 1680  LLC: 4096
rand_sets[90]: 1680
Assign rand_sets[91]: 3525  LLC: 4096
rand_sets[91]: 3525
Assign rand_sets[92]: 2057  LLC: 4096
rand_sets[92]: 2057
Assign rand_sets[93]: 3548  LLC: 4096
rand_sets[93]: 3548
Assign rand_sets[94]: 2899  LLC: 4096
rand_sets[94]: 2899
Assign rand_sets[95]: 3021  LLC: 4096
rand_sets[95]: 3021
Assign rand_sets[96]: 938  LLC: 4096
rand_sets[96]: 938
Assign rand_sets[97]: 1851  LLC: 4096
rand_sets[97]: 1851
Assign rand_sets[98]: 1608  LLC: 4096
rand_sets[98]: 1608
Assign rand_sets[99]: 1945  LLC: 4096
Assign rand_sets[99]: 1106  LLC: 4096
rand_sets[99]: 1106
Assign rand_sets[100]: 979  LLC: 4096
rand_sets[100]: 979
Assign rand_sets[101]: 338  LLC: 4096
rand_sets[101]: 338
Assign rand_sets[102]: 3741  LLC: 4096
rand_sets[102]: 3741
Assign rand_sets[103]: 6  LLC: 4096
rand_sets[103]: 6
Assign rand_sets[104]: 2719  LLC: 4096
rand_sets[104]: 2719
Assign rand_sets[105]: 490  LLC: 4096
rand_sets[105]: 490
Assign rand_sets[106]: 1461  LLC: 4096
rand_sets[106]: 1461
Assign rand_sets[107]: 1730  LLC: 4096
rand_sets[107]: 1730
Assign rand_sets[108]: 3078  LLC: 4096
rand_sets[108]: 3078
Assign rand_sets[109]: 2067  LLC: 4096
rand_sets[109]: 2067
Assign rand_sets[110]: 2968  LLC: 4096
rand_sets[110]: 2968
Assign rand_sets[111]: 2377  LLC: 4096
rand_sets[111]: 2377
Assign rand_sets[112]: 3762  LLC: 4096
rand_sets[112]: 3762
Assign rand_sets[113]: 1  LLC: 4096
rand_sets[113]: 1
Assign rand_sets[114]: 1822  LLC: 4096
rand_sets[114]: 1822
Assign rand_sets[115]: 172  LLC: 4096
rand_sets[115]: 172
Assign rand_sets[116]: 3634  LLC: 4096
rand_sets[116]: 3634
Assign rand_sets[117]: 648  LLC: 4096
rand_sets[117]: 648
Assign rand_sets[118]: 3377  LLC: 4096
rand_sets[118]: 3377
Assign rand_sets[119]: 668  LLC: 4096
rand_sets[119]: 668
Assign rand_sets[120]: 1874  LLC: 4096
rand_sets[120]: 1874
Assign rand_sets[121]: 70  LLC: 4096
rand_sets[121]: 70
Assign rand_sets[122]: 2709  LLC: 4096
rand_sets[122]: 2709
Assign rand_sets[123]: 3697  LLC: 4096
rand_sets[123]: 3697
Assign rand_sets[124]: 3638  LLC: 4096
rand_sets[124]: 3638
Assign rand_sets[125]: 911  LLC: 4096
rand_sets[125]: 911
Assign rand_sets[126]: 3415  LLC: 4096
rand_sets[126]: 3415
Assign rand_sets[127]: 3830  LLC: 4096
rand_sets[127]: 3830
Assign rand_sets[128]: 2617  LLC: 4096
rand_sets[128]: 2617
Assign rand_sets[129]: 1309  LLC: 4096
rand_sets[129]: 1309
Assign rand_sets[130]: 2582  LLC: 4096
rand_sets[130]: 2582
Assign rand_sets[131]: 3322  LLC: 4096
rand_sets[131]: 3322
Assign rand_sets[132]: 904  LLC: 4096
rand_sets[132]: 904
Assign rand_sets[133]: 3956  LLC: 4096
rand_sets[133]: 3956
Assign rand_sets[134]: 2293  LLC: 4096
rand_sets[134]: 2293
Assign rand_sets[135]: 3736  LLC: 4096
rand_sets[135]: 3736
Assign rand_sets[136]: 3708  LLC: 4096
rand_sets[136]: 3708
Assign rand_sets[137]: 3351  LLC: 4096
rand_sets[137]: 3351
Assign rand_sets[138]: 1628  LLC: 4096
rand_sets[138]: 1628
Assign rand_sets[139]: 3905  LLC: 4096
rand_sets[139]: 3905
Assign rand_sets[140]: 187  LLC: 4096
rand_sets[140]: 187
Assign rand_sets[141]: 3437  LLC: 4096
rand_sets[141]: 3437
Assign rand_sets[142]: 881  LLC: 4096
rand_sets[142]: 881
Assign rand_sets[143]: 3214  LLC: 4096
rand_sets[143]: 3214
Assign rand_sets[144]: 3087  LLC: 4096
rand_sets[144]: 3087
Assign rand_sets[145]: 3184  LLC: 4096
rand_sets[145]: 3184
Assign rand_sets[146]: 601  LLC: 4096
rand_sets[146]: 601
Assign rand_sets[147]: 967  LLC: 4096
rand_sets[147]: 967
Assign rand_sets[148]: 2817  LLC: 4096
rand_sets[148]: 2817
Assign rand_sets[149]: 2331  LLC: 4096
rand_sets[149]: 2331
Assign rand_sets[150]: 2607  LLC: 4096
rand_sets[150]: 2607
Assign rand_sets[151]: 3123  LLC: 4096
rand_sets[151]: 3123
Assign rand_sets[152]: 2877  LLC: 4096
rand_sets[152]: 2877
Assign rand_sets[153]: 1681  LLC: 4096
rand_sets[153]: 1681
Assign rand_sets[154]: 3776  LLC: 4096
rand_sets[154]: 3776
Assign rand_sets[155]: 2589  LLC: 4096
rand_sets[155]: 2589
Assign rand_sets[156]: 421  LLC: 4096
rand_sets[156]: 421
Assign rand_sets[157]: 1037  LLC: 4096
rand_sets[157]: 1037
Assign rand_sets[158]: 2061  LLC: 4096
rand_sets[158]: 2061
Assign rand_sets[159]: 1707  LLC: 4096
rand_sets[159]: 1707
Assign rand_sets[160]: 1075  LLC: 4096
rand_sets[160]: 1075
Assign rand_sets[161]: 1933  LLC: 4096
rand_sets[161]: 1933
Assign rand_sets[162]: 1406  LLC: 4096
rand_sets[162]: 1406
Assign rand_sets[163]: 2142  LLC: 4096
rand_sets[163]: 2142
Assign rand_sets[164]: 1423  LLC: 4096
rand_sets[164]: 1423
Assign rand_sets[165]: 1854  LLC: 4096
rand_sets[165]: 1854
Assign rand_sets[166]: 2278  LLC: 4096
rand_sets[166]: 2278
Assign rand_sets[167]: 2152  LLC: 4096
rand_sets[167]: 2152
Assign rand_sets[168]: 3700  LLC: 4096
rand_sets[168]: 3700
Assign rand_sets[169]: 3494  LLC: 4096
rand_sets[169]: 3494
Assign rand_sets[170]: 1338  LLC: 4096
rand_sets[170]: 1338
Assign rand_sets[171]: 177  LLC: 4096
rand_sets[171]: 177
Assign rand_sets[172]: 195  LLC: 4096
rand_sets[172]: 195
Assign rand_sets[173]: 1171  LLC: 4096
rand_sets[173]: 1171
Assign rand_sets[174]: 3345  LLC: 4096
rand_sets[174]: 3345
Assign rand_sets[175]: 3752  LLC: 4096
rand_sets[175]: 3752
Assign rand_sets[176]: 100  LLC: 4096
rand_sets[176]: 100
Assign rand_sets[177]: 711  LLC: 4096
rand_sets[177]: 711
Assign rand_sets[178]: 3291  LLC: 4096
rand_sets[178]: 3291
Assign rand_sets[179]: 1738  LLC: 4096
rand_sets[179]: 1738
Assign rand_sets[180]: 3552  LLC: 4096
rand_sets[180]: 3552
Assign rand_sets[181]: 2144  LLC: 4096
rand_sets[181]: 2144
Assign rand_sets[182]: 3297  LLC: 4096
rand_sets[182]: 3297
Assign rand_sets[183]: 1267  LLC: 4096
rand_sets[183]: 1267
Assign rand_sets[184]: 3775  LLC: 4096
rand_sets[184]: 3775
Assign rand_sets[185]: 1545  LLC: 4096
rand_sets[185]: 1545
Assign rand_sets[186]: 1792  LLC: 4096
rand_sets[186]: 1792
Assign rand_sets[187]: 1383  LLC: 4096
rand_sets[187]: 1383
Assign rand_sets[188]: 4002  LLC: 4096
rand_sets[188]: 4002
Assign rand_sets[189]: 2787  LLC: 4096
rand_sets[189]: 2787
Assign rand_sets[190]: 3109  LLC: 4096
rand_sets[190]: 3109
Assign rand_sets[191]: 672  LLC: 4096
rand_sets[191]: 672
Assign rand_sets[192]: 3105  LLC: 4096
rand_sets[192]: 3105
Assign rand_sets[193]: 1329  LLC: 4096
rand_sets[193]: 1329
Assign rand_sets[194]: 1415  LLC: 4096
rand_sets[194]: 1415
Assign rand_sets[195]: 981  LLC: 4096
rand_sets[195]: 981
Assign rand_sets[196]: 2146  LLC: 4096
rand_sets[196]: 2146
Assign rand_sets[197]: 453  LLC: 4096
rand_sets[197]: 453
Assign rand_sets[198]: 3496  LLC: 4096
rand_sets[198]: 3496
Assign rand_sets[199]: 2127  LLC: 4096
rand_sets[199]: 2127
Assign rand_sets[200]: 2174  LLC: 4096
rand_sets[200]: 2174
Assign rand_sets[201]: 1582  LLC: 4096
rand_sets[201]: 1582
Assign rand_sets[202]: 3337  LLC: 4096
rand_sets[202]: 3337
Assign rand_sets[203]: 2923  LLC: 4096
rand_sets[203]: 2923
Assign rand_sets[204]: 404  LLC: 4096
rand_sets[204]: 404
Assign rand_sets[205]: 415  LLC: 4096
rand_sets[205]: 415
Assign rand_sets[206]: 1712  LLC: 4096
rand_sets[206]: 1712
Assign rand_sets[207]: 3437  LLC: 4096
Assign rand_sets[207]: 169  LLC: 4096
rand_sets[207]: 169
Assign rand_sets[208]: 158  LLC: 4096
rand_sets[208]: 158
Assign rand_sets[209]: 90  LLC: 4096
rand_sets[209]: 90
Assign rand_sets[210]: 3339  LLC: 4096
rand_sets[210]: 3339
Assign rand_sets[211]: 838  LLC: 4096
rand_sets[211]: 838
Assign rand_sets[212]: 3952  LLC: 4096
rand_sets[212]: 3952
Assign rand_sets[213]: 640  LLC: 4096
rand_sets[213]: 640
Assign rand_sets[214]: 3510  LLC: 4096
rand_sets[214]: 3510
Assign rand_sets[215]: 3535  LLC: 4096
rand_sets[215]: 3535
Assign rand_sets[216]: 1863  LLC: 4096
rand_sets[216]: 1863
Assign rand_sets[217]: 3084  LLC: 4096
rand_sets[217]: 3084
Assign rand_sets[218]: 1702  LLC: 4096
Assign rand_sets[218]: 2981  LLC: 4096
rand_sets[218]: 2981
Assign rand_sets[219]: 554  LLC: 4096
rand_sets[219]: 554
Assign rand_sets[220]: 1496  LLC: 4096
rand_sets[220]: 1496
Assign rand_sets[221]: 1708  LLC: 4096
rand_sets[221]: 1708
Assign rand_sets[222]: 1275  LLC: 4096
rand_sets[222]: 1275
Assign rand_sets[223]: 416  LLC: 4096
rand_sets[223]: 416
Assign rand_sets[224]: 491  LLC: 4096
rand_sets[224]: 491
Assign rand_sets[225]: 2231  LLC: 4096
rand_sets[225]: 2231
Assign rand_sets[226]: 1657  LLC: 4096
rand_sets[226]: 1657
Assign rand_sets[227]: 1060  LLC: 4096
rand_sets[227]: 1060
Assign rand_sets[228]: 626  LLC: 4096
rand_sets[228]: 626
Assign rand_sets[229]: 1315  LLC: 4096
rand_sets[229]: 1315
Assign rand_sets[230]: 1682  LLC: 4096
rand_sets[230]: 1682
Assign rand_sets[231]: 1352  LLC: 4096
rand_sets[231]: 1352
Assign rand_sets[232]: 1152  LLC: 4096
rand_sets[232]: 1152
Assign rand_sets[233]: 3013  LLC: 4096
rand_sets[233]: 3013
Assign rand_sets[234]: 1190  LLC: 4096
rand_sets[234]: 1190
Assign rand_sets[235]: 1191  LLC: 4096
rand_sets[235]: 1191
Assign rand_sets[236]: 2693  LLC: 4096
rand_sets[236]: 2693
Assign rand_sets[237]: 695  LLC: 4096
rand_sets[237]: 695
Assign rand_sets[238]: 3543  LLC: 4096
rand_sets[238]: 3543
Assign rand_sets[239]: 3980  LLC: 4096
rand_sets[239]: 3980
Assign rand_sets[240]: 656  LLC: 4096
rand_sets[240]: 656
Assign rand_sets[241]: 1508  LLC: 4096
rand_sets[241]: 1508
Assign rand_sets[242]: 939  LLC: 4096
rand_sets[242]: 939
Assign rand_sets[243]: 2403  LLC: 4096
rand_sets[243]: 2403
Assign rand_sets[244]: 1092  LLC: 4096
rand_sets[244]: 1092
Assign rand_sets[245]: 850  LLC: 4096
rand_sets[245]: 850
Assign rand_sets[246]: 102  LLC: 4096
rand_sets[246]: 102
Assign rand_sets[247]: 3811  LLC: 4096
rand_sets[247]: 3811
Assign rand_sets[248]: 668  LLC: 4096
Assign rand_sets[248]: 51  LLC: 4096
rand_sets[248]: 51
Assign rand_sets[249]: 1317  LLC: 4096
rand_sets[249]: 1317
Assign rand_sets[250]: 4089  LLC: 4096
rand_sets[250]: 4089
Assign rand_sets[251]: 3422  LLC: 4096
rand_sets[251]: 3422
Assign rand_sets[252]: 682  LLC: 4096
rand_sets[252]: 682
Assign rand_sets[253]: 3514  LLC: 4096
rand_sets[253]: 3514
Assign rand_sets[254]: 3187  LLC: 4096
rand_sets[254]: 3187
Assign rand_sets[255]: 3680  LLC: 4096
rand_sets[255]: 3680
Heartbeat CPU 0 instructions: 10000000 cycles: 3427893 heartbeat IPC: 2.91724 cumulative IPC: 2.91724 (Simulation time: 0 hr 0 min 35 sec) 
Heartbeat CPU 3 instructions: 10000003 cycles: 4015440 heartbeat IPC: 2.49039 cumulative IPC: 2.49039 (Simulation time: 0 hr 0 min 41 sec) 
Heartbeat CPU 2 instructions: 10000000 cycles: 4111592 heartbeat IPC: 2.43215 cumulative IPC: 2.43215 (Simulation time: 0 hr 0 min 42 sec) 
Heartbeat CPU 1 instructions: 10000002 cycles: 4675565 heartbeat IPC: 2.13878 cumulative IPC: 2.13878 (Simulation time: 0 hr 0 min 46 sec) 

Warmup complete CPU 0 instructions: 13647040 cycles: 4675565 (Simulation time: 0 hr 0 min 46 sec) 
Warmup complete CPU 1 instructions: 10000002 cycles: 4675565 (Simulation time: 0 hr 0 min 46 sec) 
Warmup complete CPU 2 instructions: 10869989 cycles: 4675564 (Simulation time: 0 hr 0 min 46 sec) 
Warmup complete CPU 3 instructions: 11572261 cycles: 4675564 (Simulation time: 0 hr 0 min 46 sec) 

Heartbeat CPU 3 instructions: 20000001 cycles: 12470721 heartbeat IPC: 1.18269 cumulative IPC: 1.08115 (Simulation time: 0 hr 1 min 11 sec) 
Heartbeat CPU 1 instructions: 20000001 cycles: 13150075 heartbeat IPC: 1.18001 cumulative IPC: 1.18001 (Simulation time: 0 hr 1 min 13 sec) 
Heartbeat CPU 0 instructions: 20000000 cycles: 15026713 heartbeat IPC: 0.862157 cumulative IPC: 0.613744 (Simulation time: 0 hr 1 min 20 sec) 
Heartbeat CPU 1 instructions: 30000000 cycles: 21623893 heartbeat IPC: 1.18011 cumulative IPC: 1.18006 (Simulation time: 0 hr 1 min 41 sec) 
Heartbeat CPU 3 instructions: 30000003 cycles: 21777827 heartbeat IPC: 1.07445 cumulative IPC: 1.0775 (Simulation time: 0 hr 1 min 42 sec) 
Heartbeat CPU 1 instructions: 40000000 cycles: 30100990 heartbeat IPC: 1.17965 cumulative IPC: 1.17992 (Simulation time: 0 hr 2 min 9 sec) 
Heartbeat CPU 3 instructions: 40000003 cycles: 30872079 heartbeat IPC: 1.0996 cumulative IPC: 1.08517 (Simulation time: 0 hr 2 min 11 sec) 
Heartbeat CPU 0 instructions: 30000000 cycles: 31803453 heartbeat IPC: 0.596063 cumulative IPC: 0.60281 (Simulation time: 0 hr 2 min 15 sec) 
Heartbeat CPU 2 instructions: 20000002 cycles: 32775120 heartbeat IPC: 0.348875 cumulative IPC: 0.324917 (Simulation time: 0 hr 2 min 18 sec) 
Heartbeat CPU 1 instructions: 50000000 cycles: 38759974 heartbeat IPC: 1.15487 cumulative IPC: 1.17356 (Simulation time: 0 hr 2 min 38 sec) 
Heartbeat CPU 3 instructions: 50000003 cycles: 40180311 heartbeat IPC: 1.07432 cumulative IPC: 1.08233 (Simulation time: 0 hr 2 min 42 sec) 
Heartbeat CPU 1 instructions: 60000000 cycles: 47194943 heartbeat IPC: 1.18554 cumulative IPC: 1.17593 (Simulation time: 0 hr 3 min 5 sec) 
Finished CPU 1 instructions: 50000003 cycles: 42519380 cumulative IPC: 1.17593 (Simulation time: 0 hr 3 min 5 sec) 
Heartbeat CPU 0 instructions: 40000001 cycles: 49188168 heartbeat IPC: 0.575218 cumulative IPC: 0.592034 (Simulation time: 0 hr 3 min 11 sec) 
Heartbeat CPU 3 instructions: 60000000 cycles: 49285638 heartbeat IPC: 1.09826 cumulative IPC: 1.08558 (Simulation time: 0 hr 3 min 11 sec) 
Finished CPU 3 instructions: 50000000 cycles: 46134039 cumulative IPC: 1.0838 (Simulation time: 0 hr 3 min 17 sec) 
Heartbeat CPU 1 instructions: 70000000 cycles: 55644440 heartbeat IPC: 1.1835 cumulative IPC: 1.17719 (Simulation time: 0 hr 3 min 32 sec) 
Heartbeat CPU 3 instructions: 70000002 cycles: 58589314 heartbeat IPC: 1.07484 cumulative IPC: 1.08373 (Simulation time: 0 hr 3 min 42 sec) 
Heartbeat CPU 2 instructions: 30000000 cycles: 63243785 heartbeat IPC: 0.328206 cumulative IPC: 0.326628 (Simulation time: 0 hr 3 min 57 sec) 
Heartbeat CPU 1 instructions: 80000001 cycles: 64220511 heartbeat IPC: 1.16604 cumulative IPC: 1.17558 (Simulation time: 0 hr 4 min 0 sec) 
Heartbeat CPU 0 instructions: 50000000 cycles: 66238187 heartbeat IPC: 0.58651 cumulative IPC: 0.590504 (Simulation time: 0 hr 4 min 7 sec) 
Heartbeat CPU 3 instructions: 80000000 cycles: 67729982 heartbeat IPC: 1.09401 cumulative IPC: 1.08522 (Simulation time: 0 hr 4 min 12 sec) 
Heartbeat CPU 1 instructions: 90000001 cycles: 72659464 heartbeat IPC: 1.18498 cumulative IPC: 1.17675 (Simulation time: 0 hr 4 min 28 sec) 
Heartbeat CPU 3 instructions: 90000002 cycles: 77065495 heartbeat IPC: 1.07118 cumulative IPC: 1.08341 (Simulation time: 0 hr 4 min 43 sec) 
Heartbeat CPU 1 instructions: 100000003 cycles: 81281852 heartbeat IPC: 1.15977 cumulative IPC: 1.17484 (Simulation time: 0 hr 4 min 56 sec) 
Heartbeat CPU 0 instructions: 60000002 cycles: 83517879 heartbeat IPC: 0.578714 cumulative IPC: 0.58792 (Simulation time: 0 hr 5 min 3 sec) 
Heartbeat CPU 3 instructions: 100000001 cycles: 86200875 heartbeat IPC: 1.09465 cumulative IPC: 1.08467 (Simulation time: 0 hr 5 min 12 sec) 
Heartbeat CPU 1 instructions: 110000000 cycles: 89735104 heartbeat IPC: 1.18298 cumulative IPC: 1.17565 (Simulation time: 0 hr 5 min 24 sec) 
Finished CPU 0 instructions: 50000002 cycles: 85161399 cumulative IPC: 0.58712 (Simulation time: 0 hr 5 min 24 sec) 
Heartbeat CPU 2 instructions: 40000000 cycles: 94192704 heartbeat IPC: 0.323113 cumulative IPC: 0.325413 (Simulation time: 0 hr 5 min 37 sec) 
Heartbeat CPU 3 instructions: 110000000 cycles: 95534245 heartbeat IPC: 1.07142 cumulative IPC: 1.08331 (Simulation time: 0 hr 5 min 42 sec) 
Heartbeat CPU 1 instructions: 120000002 cycles: 98266726 heartbeat IPC: 1.17211 cumulative IPC: 1.17532 (Simulation time: 0 hr 5 min 51 sec) 
Heartbeat CPU 0 instructions: 70000001 cycles: 99910051 heartbeat IPC: 0.610047 cumulative IPC: 0.591729 (Simulation time: 0 hr 5 min 56 sec) 
Heartbeat CPU 3 instructions: 120000000 cycles: 104691507 heartbeat IPC: 1.09203 cumulative IPC: 1.0841 (Simulation time: 0 hr 6 min 12 sec) 
Heartbeat CPU 1 instructions: 130000002 cycles: 106712587 heartbeat IPC: 1.18401 cumulative IPC: 1.17604 (Simulation time: 0 hr 6 min 18 sec) 
Heartbeat CPU 3 instructions: 130000000 cycles: 114120945 heartbeat IPC: 1.06051 cumulative IPC: 1.08207 (Simulation time: 0 hr 6 min 43 sec) 
Heartbeat CPU 1 instructions: 140000000 cycles: 115338219 heartbeat IPC: 1.15934 cumulative IPC: 1.17474 (Simulation time: 0 hr 6 min 47 sec) 
Heartbeat CPU 0 instructions: 80000002 cycles: 117390039 heartbeat IPC: 0.572083 cumulative IPC: 0.588682 (Simulation time: 0 hr 6 min 54 sec) 
Heartbeat CPU 3 instructions: 140000002 cycles: 123343202 heartbeat IPC: 1.08433 cumulative IPC: 1.08225 (Simulation time: 0 hr 7 min 13 sec) 
Heartbeat CPU 1 instructions: 150000000 cycles: 123865312 heartbeat IPC: 1.17273 cumulative IPC: 1.1746 (Simulation time: 0 hr 7 min 14 sec) 
Heartbeat CPU 2 instructions: 50000000 cycles: 124508453 heartbeat IPC: 0.329862 cumulative IPC: 0.326538 (Simulation time: 0 hr 7 min 17 sec) 
Heartbeat CPU 3 instructions: 150000002 cycles: 132583586 heartbeat IPC: 1.08221 cumulative IPC: 1.08224 (Simulation time: 0 hr 7 min 42 sec) 
Heartbeat CPU 1 instructions: 160000000 cycles: 132848656 heartbeat IPC: 1.11317 cumulative IPC: 1.17029 (Simulation time: 0 hr 7 min 43 sec) 
Heartbeat CPU 0 instructions: 90000001 cycles: 134982497 heartbeat IPC: 0.568425 cumulative IPC: 0.585947 (Simulation time: 0 hr 7 min 51 sec) 
Heartbeat CPU 1 instructions: 170000002 cycles: 141379480 heartbeat IPC: 1.17222 cumulative IPC: 1.17041 (Simulation time: 0 hr 8 min 11 sec) 
Heartbeat CPU 3 instructions: 160000000 cycles: 141903269 heartbeat IPC: 1.073 cumulative IPC: 1.08162 (Simulation time: 0 hr 8 min 13 sec) 
Heartbeat CPU 1 instructions: 180000003 cycles: 150008398 heartbeat IPC: 1.15889 cumulative IPC: 1.16973 (Simulation time: 0 hr 8 min 40 sec) 
Heartbeat CPU 3 instructions: 170000003 cycles: 151022559 heartbeat IPC: 1.09658 cumulative IPC: 1.08255 (Simulation time: 0 hr 8 min 43 sec) 
Heartbeat CPU 0 instructions: 100000001 cycles: 152505377 heartbeat IPC: 0.570682 cumulative IPC: 0.584138 (Simulation time: 0 hr 8 min 47 sec) 
Heartbeat CPU 2 instructions: 60000003 cycles: 155467847 heartbeat IPC: 0.323004 cumulative IPC: 0.325813 (Simulation time: 0 hr 8 min 58 sec) 
Finished CPU 2 instructions: 50000002 cycles: 153770225 cumulative IPC: 0.32516 (Simulation time: 0 hr 9 min 7 sec) 

ChampSim completed all CPUs

Total Simulation Statistics (not including warmup)

CPU 0 cumulative IPC: 0.58433 instructions: 89852517 cycles: 153770224
L1D TOTAL     ACCESS:   12685156  HIT:   11393635  MISS:    1291521
L1D LOAD      ACCESS:   11346889  HIT:   10142989  MISS:    1203900
L1D RFO       ACCESS:    1338267  HIT:    1250646  MISS:      87621
L1D PREFETCH  ACCESS:          0  HIT:          0  MISS:          0
L1D WRITEBACK ACCESS:          0  HIT:          0  MISS:          0
L1I TOTAL     ACCESS:   16675386  HIT:   16675070  MISS:        316
L1I LOAD      ACCESS:   16675386  HIT:   16675070  MISS:        316
L1I RFO       ACCESS:          0  HIT:          0  MISS:          0
L1I PREFETCH  ACCESS:          0  HIT:          0  MISS:          0
L1I WRITEBACK ACCESS:          0  HIT:          0  MISS:          0
L2C TOTAL     ACCESS:    1397144  HIT:     275781  MISS:    1121363
L2C LOAD      ACCESS:    1204213  HIT:     161933  MISS:    1042280
L2C RFO       ACCESS:      87619  HIT:       8853  MISS:      78766
L2C PREFETCH  ACCESS:          0  HIT:          0  MISS:          0
L2C WRITEBACK ACCESS:     105312  HIT:     104995  MISS:        317
LLC TOTAL     ACCESS:    1215216  HIT:     188272  MISS:    1026944
LLC LOAD      ACCESS:    1042280  HIT:      70634  MISS:     971646
LLC RFO       ACCESS:      78766  HIT:      24244  MISS:      54522
LLC PREFETCH  ACCESS:          0  HIT:          0  MISS:          0
LLC WRITEBACK ACCESS:      94170  HIT:      93394  MISS:        776

CPU 1 cumulative IPC: 1.16912 instructions: 179775168 cycles: 153770224
L1D TOTAL     ACCESS:   11688309  HIT:    2723992  MISS:    8964317
L1D LOAD      ACCESS:    1513334  HIT:    1399535  MISS:     113799
L1D RFO       ACCESS:   10174975  HIT:    1324457  MISS:    8850518
L1D PREFETCH  ACCESS:          0  HIT:          0  MISS:          0
L1D WRITEBACK ACCESS:          0  HIT:          0  MISS:          0
L1I TOTAL     ACCESS:   34238796  HIT:   34229880  MISS:       8916
L1I LOAD      ACCESS:   34238796  HIT:   34229880  MISS:       8916
L1I RFO       ACCESS:          0  HIT:          0  MISS:          0
L1I PREFETCH  ACCESS:          0  HIT:          0  MISS:          0
L1I WRITEBACK ACCESS:          0  HIT:          0  MISS:          0
L2C TOTAL     ACCESS:   17854458  HIT:    8888949  MISS:    8965509
L2C LOAD      ACCESS:     122715  HIT:       4956  MISS:     117759
L2C RFO       ACCESS:    8850519  HIT:       2769  MISS:    8847750
L2C PREFETCH  ACCESS:          0  HIT:          0  MISS:          0
L2C WRITEBACK ACCESS:    8881224  HIT:    8881224  MISS:          0
LLC TOTAL     ACCESS:   17841245  HIT:   17806908  MISS:      34337
LLC LOAD      ACCESS:     117759  HIT:      91243  MISS:      26516
LLC RFO       ACCESS:    8847751  HIT:    8839950  MISS:       7801
LLC PREFETCH  ACCESS:          0  HIT:          0  MISS:          0
LLC WRITEBACK ACCESS:    8875735  HIT:    8875715  MISS:         20

CPU 2 cumulative IPC: 0.32516 instructions: 50000002 cycles: 153770225
L1D TOTAL     ACCESS:   18405445  HIT:   16306036  MISS:    2099409
L1D LOAD      ACCESS:   13037414  HIT:   11134354  MISS:    1903060
L1D RFO       ACCESS:    5368031  HIT:    5171682  MISS:     196349
L1D PREFETCH  ACCESS:          0  HIT:          0  MISS:          0
L1D WRITEBACK ACCESS:          0  HIT:          0  MISS:          0
L1I TOTAL     ACCESS:    9618595  HIT:    9618595  MISS:          0
L1I LOAD      ACCESS:    9618595  HIT:    9618595  MISS:          0
L1I RFO       ACCESS:          0  HIT:          0  MISS:          0
L1I PREFETCH  ACCESS:          0  HIT:          0  MISS:          0
L1I WRITEBACK ACCESS:          0  HIT:          0  MISS:          0
L2C TOTAL     ACCESS:    2379775  HIT:     831675  MISS:    1548100
L2C LOAD      ACCESS:    1903052  HIT:     502412  MISS:    1400640
L2C RFO       ACCESS:     196345  HIT:      49134  MISS:     147211
L2C PREFETCH  ACCESS:          0  HIT:          0  MISS:          0
L2C WRITEBACK ACCESS:     280378  HIT:     280129  MISS:        249
LLC TOTAL     ACCESS:    1746185  HIT:    1092887  MISS:     653298
LLC LOAD      ACCESS:    1400637  HIT:     749312  MISS:     651325
LLC RFO       ACCESS:     147209  HIT:     145266  MISS:       1943
LLC PREFETCH  ACCESS:          0  HIT:          0  MISS:          0
LLC WRITEBACK ACCESS:     198339  HIT:     198309  MISS:         30

CPU 3 cumulative IPC: 1.08243 instructions: 166445512 cycles: 153770225
L1D TOTAL     ACCESS:   40255641  HIT:   39532184  MISS:     723457
L1D LOAD      ACCESS:   27752750  HIT:   27310821  MISS:     441929
L1D RFO       ACCESS:   12502891  HIT:   12221363  MISS:     281528
L1D PREFETCH  ACCESS:          0  HIT:          0  MISS:          0
L1D WRITEBACK ACCESS:          0  HIT:          0  MISS:          0
L1I TOTAL     ACCESS:   30701578  HIT:   30684787  MISS:      16791
L1I LOAD      ACCESS:   30701578  HIT:   30684787  MISS:      16791
L1I RFO       ACCESS:          0  HIT:          0  MISS:          0
L1I PREFETCH  ACCESS:          0  HIT:          0  MISS:          0
L1I WRITEBACK ACCESS:          0  HIT:          0  MISS:          0
L2C TOTAL     ACCESS:    1092892  HIT:     786452  MISS:     306440
L2C LOAD      ACCESS:     458720  HIT:     316926  MISS:     141794
L2C RFO       ACCESS:     281528  HIT:     117140  MISS:     164388
L2C PREFETCH  ACCESS:          0  HIT:          0  MISS:          0
L2C WRITEBACK ACCESS:     352644  HIT:     352386  MISS:        258
LLC TOTAL     ACCESS:     506394  HIT:     351935  MISS:     154459
LLC LOAD      ACCESS:     141791  HIT:      59187  MISS:      82604
LLC RFO       ACCESS:     164388  HIT:     110771  MISS:      53617
LLC PREFETCH  ACCESS:          0  HIT:          0  MISS:          0
LLC WRITEBACK ACCESS:     200215  HIT:     181977  MISS:      18238

Region of Interest Statistics

CPU 0 cumulative IPC: 0.58712 instructions: 50000002 cycles: 85161399
L1D TOTAL     ACCESS:    7062395  HIT:    6339876  MISS:     722519
L1D LOAD      ACCESS:    6331679  HIT:    5660109  MISS:     671570
L1D RFO       ACCESS:     730716  HIT:     679767  MISS:      50949
L1D PREFETCH  ACCESS:          0  HIT:          0  MISS:          0
L1D WRITEBACK ACCESS:          0  HIT:          0  MISS:          0
L1D PREFETCH  REQUESTED:          0  ISSUED:          0  USEFUL:          0  USELESS:          0
L1D AVERAGE MISS LATENCY: 312.106 cycles
L1I TOTAL     ACCESS:    9231129  HIT:    9230894  MISS:        235
L1I LOAD      ACCESS:    9231129  HIT:    9230894  MISS:        235
L1I RFO       ACCESS:          0  HIT:          0  MISS:          0
L1I PREFETCH  ACCESS:          0  HIT:          0  MISS:          0
L1I WRITEBACK ACCESS:          0  HIT:          0  MISS:          0
L1I PREFETCH  REQUESTED:          0  ISSUED:          0  USEFUL:          0  USELESS:          0
L1I AVERAGE MISS LATENCY: 299.438 cycles
L2C TOTAL     ACCESS:     782309  HIT:     156222  MISS:     626087
L2C LOAD      ACCESS:     671804  HIT:      92161  MISS:     579643
L2C RFO       ACCESS:      50948  HIT:       4694  MISS:      46254
L2C PREFETCH  ACCESS:          0  HIT:          0  MISS:          0
L2C WRITEBACK ACCESS:      59557  HIT:      59367  MISS:        190
L2C PREFETCH  REQUESTED:          0  ISSUED:          0  USEFUL:          0  USELESS:          0
L2C AVERAGE MISS LATENCY: 327.867 cycles
LLC TOTAL     ACCESS:     679674  HIT:     104396  MISS:     575278
LLC LOAD      ACCESS:     579643  HIT:      37090  MISS:     542553
LLC RFO       ACCESS:      46254  HIT:      13958  MISS:      32296
LLC PREFETCH  ACCESS:          0  HIT:          0  MISS:          0
LLC WRITEBACK ACCESS:      53777  HIT:      53348  MISS:        429
LLC PREFETCH  REQUESTED:          0  ISSUED:          0  USEFUL:          0  USELESS:          0
LLC AVERAGE MISS LATENCY: 567.289 cycles
Major fault: 0 Minor fault: 2138

CPU 1 cumulative IPC: 1.17593 instructions: 50000003 cycles: 42519380
L1D TOTAL     ACCESS:    3164992  HIT:     662888  MISS:    2502104
L1D LOAD      ACCESS:     369337  HIT:     339258  MISS:      30079
L1D RFO       ACCESS:    2795655  HIT:     323630  MISS:    2472025
L1D PREFETCH  ACCESS:          0  HIT:          0  MISS:          0
L1D WRITEBACK ACCESS:          0  HIT:          0  MISS:          0
L1D PREFETCH  REQUESTED:          0  ISSUED:          0  USEFUL:          0  USELESS:          0
L1D AVERAGE MISS LATENCY: 163.57 cycles
L1I TOTAL     ACCESS:    9524207  HIT:    9521881  MISS:       2326
L1I LOAD      ACCESS:    9524207  HIT:    9521881  MISS:       2326
L1I RFO       ACCESS:          0  HIT:          0  MISS:          0
L1I PREFETCH  ACCESS:          0  HIT:          0  MISS:          0
L1I WRITEBACK ACCESS:          0  HIT:          0  MISS:          0
L1I PREFETCH  REQUESTED:          0  ISSUED:          0  USEFUL:          0  USELESS:          0
L1I AVERAGE MISS LATENCY: 252.832 cycles
L2C TOTAL     ACCESS:    4984754  HIT:    2482369  MISS:    2502385
L2C LOAD      ACCESS:      32405  HIT:       1224  MISS:      31181
L2C RFO       ACCESS:    2472025  HIT:        821  MISS:    2471204
L2C PREFETCH  ACCESS:          0  HIT:          0  MISS:          0
L2C WRITEBACK ACCESS:    2480324  HIT:    2480324  MISS:          0
L2C PREFETCH  REQUESTED:          0  ISSUED:          0  USEFUL:          0  USELESS:          0
L2C AVERAGE MISS LATENCY: 109.993 cycles
LLC TOTAL     ACCESS:    4981238  HIT:    4971802  MISS:       9436
LLC LOAD      ACCESS:      31181  HIT:      24536  MISS:       6645
LLC RFO       ACCESS:    2471204  HIT:    2468415  MISS:       2789
LLC PREFETCH  ACCESS:          0  HIT:          0  MISS:          0
LLC WRITEBACK ACCESS:    2478853  HIT:    2478851  MISS:          2
LLC PREFETCH  REQUESTED:          0  ISSUED:          0  USEFUL:          0  USELESS:          0
LLC AVERAGE MISS LATENCY: 34585.5 cycles
Major fault: 0 Minor fault: 2103

CPU 2 cumulative IPC: 0.32516 instructions: 50000002 cycles: 153770225
L1D TOTAL     ACCESS:   18405445  HIT:   16306036  MISS:    2099409
L1D LOAD      ACCESS:   13037414  HIT:   11134354  MISS:    1903060
L1D RFO       ACCESS:    5368031  HIT:    5171682  MISS:     196349
L1D PREFETCH  ACCESS:          0  HIT:          0  MISS:          0
L1D WRITEBACK ACCESS:          0  HIT:          0  MISS:          0
L1D PREFETCH  REQUESTED:          0  ISSUED:          0  USEFUL:          0  USELESS:          0
L1D AVERAGE MISS LATENCY: 95.5893 cycles
L1I TOTAL     ACCESS:    9618595  HIT:    9618595  MISS:          0
L1I LOAD      ACCESS:    9618595  HIT:    9618595  MISS:          0
L1I RFO       ACCESS:          0  HIT:          0  MISS:          0
L1I PREFETCH  ACCESS:          0  HIT:          0  MISS:          0
L1I WRITEBACK ACCESS:          0  HIT:          0  MISS:          0
L1I PREFETCH  REQUESTED:          0  ISSUED:          0  USEFUL:          0  USELESS:          0
L1I AVERAGE MISS LATENCY: -nan cycles
L2C TOTAL     ACCESS:    2379775  HIT:     831675  MISS:    1548100
L2C LOAD      ACCESS:    1903052  HIT:     502412  MISS:    1400640
L2C RFO       ACCESS:     196345  HIT:      49134  MISS:     147211
L2C PREFETCH  ACCESS:          0  HIT:          0  MISS:          0
L2C WRITEBACK ACCESS:     280378  HIT:     280129  MISS:        249
L2C PREFETCH  REQUESTED:          0  ISSUED:          0  USEFUL:          0  USELESS:          0
L2C AVERAGE MISS LATENCY: 108.881 cycles
LLC TOTAL     ACCESS:    1746185  HIT:    1092887  MISS:     653298
LLC LOAD      ACCESS:    1400637  HIT:     749312  MISS:     651325
LLC RFO       ACCESS:     147209  HIT:     145266  MISS:       1943
LLC PREFETCH  ACCESS:          0  HIT:          0  MISS:          0
LLC WRITEBACK ACCESS:     198339  HIT:     198309  MISS:         30
LLC PREFETCH  REQUESTED:          0  ISSUED:          0  USEFUL:          0  USELESS:          0
LLC AVERAGE MISS LATENCY: 499.54 cycles
Major fault: 0 Minor fault: 9998

CPU 3 cumulative IPC: 1.0838 instructions: 50000000 cycles: 46134039
L1D TOTAL     ACCESS:   12190807  HIT:   11970586  MISS:     220221
L1D LOAD      ACCESS:    8370731  HIT:    8236100  MISS:     134631
L1D RFO       ACCESS:    3820076  HIT:    3734486  MISS:      85590
L1D PREFETCH  ACCESS:          0  HIT:          0  MISS:          0
L1D WRITEBACK ACCESS:          0  HIT:          0  MISS:          0
L1D PREFETCH  REQUESTED:          0  ISSUED:          0  USEFUL:          0  USELESS:          0
L1D AVERAGE MISS LATENCY: 200.447 cycles
L1I TOTAL     ACCESS:    9244344  HIT:    9239227  MISS:       5117
L1I LOAD      ACCESS:    9244344  HIT:    9239227  MISS:       5117
L1I RFO       ACCESS:          0  HIT:          0  MISS:          0
L1I PREFETCH  ACCESS:          0  HIT:          0  MISS:          0
L1I WRITEBACK ACCESS:          0  HIT:          0  MISS:          0
L1I PREFETCH  REQUESTED:          0  ISSUED:          0  USEFUL:          0  USELESS:          0
L1I AVERAGE MISS LATENCY: 764.672 cycles
L2C TOTAL     ACCESS:     331846  HIT:     240025  MISS:      91821
L2C LOAD      ACCESS:     139748  HIT:      96623  MISS:      43125
L2C RFO       ACCESS:      85590  HIT:      36968  MISS:      48622
L2C PREFETCH  ACCESS:          0  HIT:          0  MISS:          0
L2C WRITEBACK ACCESS:     106508  HIT:     106434  MISS:         74
L2C PREFETCH  REQUESTED:          0  ISSUED:          0  USEFUL:          0  USELESS:          0
L2C AVERAGE MISS LATENCY: 401.506 cycles
LLC TOTAL     ACCESS:     152067  HIT:     104550  MISS:      47517
LLC LOAD      ACCESS:      43125  HIT:      17910  MISS:      25215
LLC RFO       ACCESS:      48622  HIT:      32606  MISS:      16016
LLC PREFETCH  ACCESS:          0  HIT:          0  MISS:          0
LLC WRITEBACK ACCESS:      60320  HIT:      54034  MISS:       6286
LLC PREFETCH  REQUESTED:          0  ISSUED:          0  USEFUL:          0  USELESS:          0
LLC AVERAGE MISS LATENCY: 6868.04 cycles
Major fault: 0 Minor fault: 805

DRAM Statistics
 CHANNEL 0
 RQ ROW_BUFFER_HIT:     550756  ROW_BUFFER_MISS:    1297257
 DBUS_CONGESTED:     385622
 WQ ROW_BUFFER_HIT:     110931  ROW_BUFFER_MISS:      58794  FULL:          0

 AVG_CONGESTED_CYCLE: 5

CPU 0 Branch Prediction Accuracy: 95.9466% MPKI: 3.4786 Average ROB Occupancy at Mispredict: 191.666

Branch types
NOT_BRANCH: 81828507 91.0698%
BRANCH_DIRECT_JUMP: 171692 0.191082%
BRANCH_INDIRECT: 0 0%
BRANCH_CONDITIONAL: 7612130 8.4718%
BRANCH_DIRECT_CALL: 120055 0.133613%
BRANCH_INDIRECT_CALL: 25 2.78234e-05%
BRANCH_RETURN: 120080 0.133641%
BRANCH_OTHER: 0 0%


CPU 1 Branch Prediction Accuracy: 99.6292% MPKI: 0.728109 Average ROB Occupancy at Mispredict: 46.8203

Branch types
NOT_BRANCH: 144477602 80.3657%
BRANCH_DIRECT_JUMP: 191061 0.106278%
BRANCH_INDIRECT: 50936 0.0283332%
BRANCH_CONDITIONAL: 34698466 19.301%
BRANCH_DIRECT_CALL: 176172 0.0979957%
BRANCH_INDIRECT_CALL: 2554 0.00142066%
BRANCH_RETURN: 178722 0.0994142%
BRANCH_OTHER: 0 0%


CPU 2 Branch Prediction Accuracy: 89.0324% MPKI: 26.8717 Average ROB Occupancy at Mispredict: 15.9205

Branch types
NOT_BRANCH: 37536306 75.0726%
BRANCH_DIRECT_JUMP: 1326584 2.65317%
BRANCH_INDIRECT: 0 0%
BRANCH_CONDITIONAL: 8466275 16.9325%
BRANCH_DIRECT_CALL: 1260397 2.52079%
BRANCH_INDIRECT_CALL: 75008 0.150016%
BRANCH_RETURN: 1335409 2.67082%
BRANCH_OTHER: 0 0%


CPU 3 Branch Prediction Accuracy: 96.5044% MPKI: 4.27497 Average ROB Occupancy at Mispredict: 51.5016

Branch types
NOT_BRANCH: 145897921 87.6551%
BRANCH_DIRECT_JUMP: 629828 0.378399%
BRANCH_INDIRECT: 0 0%
BRANCH_CONDITIONAL: 16741670 10.0583%
BRANCH_DIRECT_CALL: 1588067 0.954106%
BRANCH_INDIRECT_CALL: 0 0%
BRANCH_RETURN: 1588067 0.954106%
BRANCH_OTHER: 0 0%

