
*** ChampSim Multicore Out-of-Order Simulator ***

Warmup Instructions: 10000000
Simulation Instructions: 50000000
Number of CPUs: 4
LLC sets: 4096
LLC ways: 16
Off-chip DRAM Size: 4096 MB Channels: 1 Width: 64-bit Data Rate: 3200 MT/s

CPU 0 runs /home/anderson-eric-lopes/Desktop/ChampSim-master/dpc3_traces/482.sphinx3-1522B.champsimtrace.xz
CPU 1 runs /home/anderson-eric-lopes/Desktop/ChampSim-master/dpc3_traces/403.gcc-16B.champsimtrace.xz
CPU 2 runs /home/anderson-eric-lopes/Desktop/ChampSim-master/dpc3_traces/605.mcf_s-665B.champsimtrace.xz
CPU 3 runs /home/anderson-eric-lopes/Desktop/ChampSim-master/dpc3_traces/621.wrf_s-8100B.champsimtrace.xz
CPU 0 Bimodal branch predictor
CPU 1 Bimodal branch predictor
CPU 2 Bimodal branch predictor
CPU 3 Bimodal branch predictor
Initialize SHIP state
Assign rand_sets[0]: 454  LLC: 4096
rand_sets[0]: 454
Assign rand_sets[1]: 1662  LLC: 4096
rand_sets[1]: 1662
Assign rand_sets[2]: 1921  LLC: 4096
rand_sets[2]: 1921
Assign rand_sets[3]: 1131  LLC: 4096
rand_sets[3]: 1131
Assign rand_sets[4]: 2379  LLC: 4096
rand_sets[4]: 2379
Assign rand_sets[5]: 1531  LLC: 4096
rand_sets[5]: 1531
Assign rand_sets[6]: 2530  LLC: 4096
rand_sets[6]: 2530
Assign rand_sets[7]: 3323  LLC: 4096
rand_sets[7]: 3323
Assign rand_sets[8]: 3924  LLC: 4096
rand_sets[8]: 3924
Assign rand_sets[9]: 4086  LLC: 4096
rand_sets[9]: 4086
Assign rand_sets[10]: 2749  LLC: 4096
rand_sets[10]: 2749
Assign rand_sets[11]: 479  LLC: 4096
rand_sets[11]: 479
Assign rand_sets[12]: 892  LLC: 4096
rand_sets[12]: 892
Assign rand_sets[13]: 3868  LLC: 4096
rand_sets[13]: 3868
Assign rand_sets[14]: 3553  LLC: 4096
rand_sets[14]: 3553
Assign rand_sets[15]: 1159  LLC: 4096
rand_sets[15]: 1159
Assign rand_sets[16]: 513  LLC: 4096
rand_sets[16]: 513
Assign rand_sets[17]: 703  LLC: 4096
rand_sets[17]: 703
Assign rand_sets[18]: 561  LLC: 4096
rand_sets[18]: 561
Assign rand_sets[19]: 990  LLC: 4096
rand_sets[19]: 990
Assign rand_sets[20]: 2390  LLC: 4096
rand_sets[20]: 2390
Assign rand_sets[21]: 882  LLC: 4096
rand_sets[21]: 882
Assign rand_sets[22]: 15  LLC: 4096
rand_sets[22]: 15
Assign rand_sets[23]: 2119  LLC: 4096
rand_sets[23]: 2119
Assign rand_sets[24]: 3175  LLC: 4096
rand_sets[24]: 3175
Assign rand_sets[25]: 1382  LLC: 4096
rand_sets[25]: 1382
Assign rand_sets[26]: 647  LLC: 4096
rand_sets[26]: 647
Assign rand_sets[27]: 857  LLC: 4096
rand_sets[27]: 857
Assign rand_sets[28]: 3498  LLC: 4096
rand_sets[28]: 3498
Assign rand_sets[29]: 1160  LLC: 4096
rand_sets[29]: 1160
Assign rand_sets[30]: 1852  LLC: 4096
rand_sets[30]: 1852
Assign rand_sets[31]: 3929  LLC: 4096
rand_sets[31]: 3929
Assign rand_sets[32]: 3818  LLC: 4096
rand_sets[32]: 3818
Assign rand_sets[33]: 1622  LLC: 4096
rand_sets[33]: 1622
Assign rand_sets[34]: 275  LLC: 4096
rand_sets[34]: 275
Assign rand_sets[35]: 2683  LLC: 4096
rand_sets[35]: 2683
Assign rand_sets[36]: 466  LLC: 4096
rand_sets[36]: 466
Assign rand_sets[37]: 3461  LLC: 4096
rand_sets[37]: 3461
Assign rand_sets[38]: 2465  LLC: 4096
rand_sets[38]: 2465
Assign rand_sets[39]: 2520  LLC: 4096
rand_sets[39]: 2520
Assign rand_sets[40]: 1340  LLC: 4096
rand_sets[40]: 1340
Assign rand_sets[41]: 2900  LLC: 4096
rand_sets[41]: 2900
Assign rand_sets[42]: 3413  LLC: 4096
rand_sets[42]: 3413
Assign rand_sets[43]: 47  LLC: 4096
rand_sets[43]: 47
Assign rand_sets[44]: 2871  LLC: 4096
rand_sets[44]: 2871
Assign rand_sets[45]: 2734  LLC: 4096
rand_sets[45]: 2734
Assign rand_sets[46]: 3685  LLC: 4096
rand_sets[46]: 3685
Assign rand_sets[47]: 1115  LLC: 4096
rand_sets[47]: 1115
Assign rand_sets[48]: 986  LLC: 4096
rand_sets[48]: 986
Assign rand_sets[49]: 258  LLC: 4096
rand_sets[49]: 258
Assign rand_sets[50]: 2681  LLC: 4096
rand_sets[50]: 2681
Assign rand_sets[51]: 920  LLC: 4096
rand_sets[51]: 920
Assign rand_sets[52]: 2252  LLC: 4096
rand_sets[52]: 2252
Assign rand_sets[53]: 227  LLC: 4096
rand_sets[53]: 227
Assign rand_sets[54]: 3866  LLC: 4096
rand_sets[54]: 3866
Assign rand_sets[55]: 2934  LLC: 4096
rand_sets[55]: 2934
Assign rand_sets[56]: 1422  LLC: 4096
rand_sets[56]: 1422
Assign rand_sets[57]: 2655  LLC: 4096
rand_sets[57]: 2655
Assign rand_sets[58]: 2265  LLC: 4096
rand_sets[58]: 2265
Assign rand_sets[59]: 1945  LLC: 4096
rand_sets[59]: 1945
Assign rand_sets[60]: 2191  LLC: 4096
rand_sets[60]: 2191
Assign rand_sets[61]: 1311  LLC: 4096
rand_sets[61]: 1311
Assign rand_sets[62]: 2367  LLC: 4096
rand_sets[62]: 2367
Assign rand_sets[63]: 3894  LLC: 4096
rand_sets[63]: 3894
Assign rand_sets[64]: 2286  LLC: 4096
rand_sets[64]: 2286
Assign rand_sets[65]: 67  LLC: 4096
rand_sets[65]: 67
Assign rand_sets[66]: 3960  LLC: 4096
rand_sets[66]: 3960
Assign rand_sets[67]: 3661  LLC: 4096
rand_sets[67]: 3661
Assign rand_sets[68]: 3341  LLC: 4096
rand_sets[68]: 3341
Assign rand_sets[69]: 1018  LLC: 4096
rand_sets[69]: 1018
Assign rand_sets[70]: 4030  LLC: 4096
rand_sets[70]: 4030
Assign rand_sets[71]: 1702  LLC: 4096
rand_sets[71]: 1702
Assign rand_sets[72]: 3546  LLC: 4096
rand_sets[72]: 3546
Assign rand_sets[73]: 228  LLC: 4096
rand_sets[73]: 228
Assign rand_sets[74]: 1414  LLC: 4096
rand_sets[74]: 1414
Assign rand_sets[75]: 1166  LLC: 4096
rand_sets[75]: 1166
Assign rand_sets[76]: 732  LLC: 4096
rand_sets[76]: 732
Assign rand_sets[77]: 2345  LLC: 4096
rand_sets[77]: 2345
Assign rand_sets[78]: 3181  LLC: 4096
rand_sets[78]: 3181
Assign rand_sets[79]: 846  LLC: 4096
rand_sets[79]: 846
Assign rand_sets[80]: 767  LLC: 4096
rand_sets[80]: 767
Assign rand_sets[81]: 3926  LLC: 4096
rand_sets[81]: 3926
Assign rand_sets[82]: 3041  LLC: 4096
rand_sets[82]: 3041
Assign rand_sets[83]: 3440  LLC: 4096
rand_sets[83]: 3440
Assign rand_sets[84]: 1568  LLC: 4096
rand_sets[84]: 1568
Assign rand_sets[85]: 1787  LLC: 4096
rand_sets[85]: 1787
Assign rand_sets[86]: 399  LLC: 4096
rand_sets[86]: 399
Assign rand_sets[87]: 1201  LLC: 4096
rand_sets[87]: 1201
Assign rand_sets[88]: 856  LLC: 4096
rand_sets[88]: 856
Assign rand_sets[89]: 773  LLC: 4096
rand_sets[89]: 773
Assign rand_sets[90]: 1680  LLC: 4096
rand_sets[90]: 1680
Assign rand_sets[91]: 3525  LLC: 4096
rand_sets[91]: 3525
Assign rand_sets[92]: 2057  LLC: 4096
rand_sets[92]: 2057
Assign rand_sets[93]: 3548  LLC: 4096
rand_sets[93]: 3548
Assign rand_sets[94]: 2899  LLC: 4096
rand_sets[94]: 2899
Assign rand_sets[95]: 3021  LLC: 4096
rand_sets[95]: 3021
Assign rand_sets[96]: 938  LLC: 4096
rand_sets[96]: 938
Assign rand_sets[97]: 1851  LLC: 4096
rand_sets[97]: 1851
Assign rand_sets[98]: 1608  LLC: 4096
rand_sets[98]: 1608
Assign rand_sets[99]: 1945  LLC: 4096
Assign rand_sets[99]: 1106  LLC: 4096
rand_sets[99]: 1106
Assign rand_sets[100]: 979  LLC: 4096
rand_sets[100]: 979
Assign rand_sets[101]: 338  LLC: 4096
rand_sets[101]: 338
Assign rand_sets[102]: 3741  LLC: 4096
rand_sets[102]: 3741
Assign rand_sets[103]: 6  LLC: 4096
rand_sets[103]: 6
Assign rand_sets[104]: 2719  LLC: 4096
rand_sets[104]: 2719
Assign rand_sets[105]: 490  LLC: 4096
rand_sets[105]: 490
Assign rand_sets[106]: 1461  LLC: 4096
rand_sets[106]: 1461
Assign rand_sets[107]: 1730  LLC: 4096
rand_sets[107]: 1730
Assign rand_sets[108]: 3078  LLC: 4096
rand_sets[108]: 3078
Assign rand_sets[109]: 2067  LLC: 4096
rand_sets[109]: 2067
Assign rand_sets[110]: 2968  LLC: 4096
rand_sets[110]: 2968
Assign rand_sets[111]: 2377  LLC: 4096
rand_sets[111]: 2377
Assign rand_sets[112]: 3762  LLC: 4096
rand_sets[112]: 3762
Assign rand_sets[113]: 1  LLC: 4096
rand_sets[113]: 1
Assign rand_sets[114]: 1822  LLC: 4096
rand_sets[114]: 1822
Assign rand_sets[115]: 172  LLC: 4096
rand_sets[115]: 172
Assign rand_sets[116]: 3634  LLC: 4096
rand_sets[116]: 3634
Assign rand_sets[117]: 648  LLC: 4096
rand_sets[117]: 648
Assign rand_sets[118]: 3377  LLC: 4096
rand_sets[118]: 3377
Assign rand_sets[119]: 668  LLC: 4096
rand_sets[119]: 668
Assign rand_sets[120]: 1874  LLC: 4096
rand_sets[120]: 1874
Assign rand_sets[121]: 70  LLC: 4096
rand_sets[121]: 70
Assign rand_sets[122]: 2709  LLC: 4096
rand_sets[122]: 2709
Assign rand_sets[123]: 3697  LLC: 4096
rand_sets[123]: 3697
Assign rand_sets[124]: 3638  LLC: 4096
rand_sets[124]: 3638
Assign rand_sets[125]: 911  LLC: 4096
rand_sets[125]: 911
Assign rand_sets[126]: 3415  LLC: 4096
rand_sets[126]: 3415
Assign rand_sets[127]: 3830  LLC: 4096
rand_sets[127]: 3830
Assign rand_sets[128]: 2617  LLC: 4096
rand_sets[128]: 2617
Assign rand_sets[129]: 1309  LLC: 4096
rand_sets[129]: 1309
Assign rand_sets[130]: 2582  LLC: 4096
rand_sets[130]: 2582
Assign rand_sets[131]: 3322  LLC: 4096
rand_sets[131]: 3322
Assign rand_sets[132]: 904  LLC: 4096
rand_sets[132]: 904
Assign rand_sets[133]: 3956  LLC: 4096
rand_sets[133]: 3956
Assign rand_sets[134]: 2293  LLC: 4096
rand_sets[134]: 2293
Assign rand_sets[135]: 3736  LLC: 4096
rand_sets[135]: 3736
Assign rand_sets[136]: 3708  LLC: 4096
rand_sets[136]: 3708
Assign rand_sets[137]: 3351  LLC: 4096
rand_sets[137]: 3351
Assign rand_sets[138]: 1628  LLC: 4096
rand_sets[138]: 1628
Assign rand_sets[139]: 3905  LLC: 4096
rand_sets[139]: 3905
Assign rand_sets[140]: 187  LLC: 4096
rand_sets[140]: 187
Assign rand_sets[141]: 3437  LLC: 4096
rand_sets[141]: 3437
Assign rand_sets[142]: 881  LLC: 4096
rand_sets[142]: 881
Assign rand_sets[143]: 3214  LLC: 4096
rand_sets[143]: 3214
Assign rand_sets[144]: 3087  LLC: 4096
rand_sets[144]: 3087
Assign rand_sets[145]: 3184  LLC: 4096
rand_sets[145]: 3184
Assign rand_sets[146]: 601  LLC: 4096
rand_sets[146]: 601
Assign rand_sets[147]: 967  LLC: 4096
rand_sets[147]: 967
Assign rand_sets[148]: 2817  LLC: 4096
rand_sets[148]: 2817
Assign rand_sets[149]: 2331  LLC: 4096
rand_sets[149]: 2331
Assign rand_sets[150]: 2607  LLC: 4096
rand_sets[150]: 2607
Assign rand_sets[151]: 3123  LLC: 4096
rand_sets[151]: 3123
Assign rand_sets[152]: 2877  LLC: 4096
rand_sets[152]: 2877
Assign rand_sets[153]: 1681  LLC: 4096
rand_sets[153]: 1681
Assign rand_sets[154]: 3776  LLC: 4096
rand_sets[154]: 3776
Assign rand_sets[155]: 2589  LLC: 4096
rand_sets[155]: 2589
Assign rand_sets[156]: 421  LLC: 4096
rand_sets[156]: 421
Assign rand_sets[157]: 1037  LLC: 4096
rand_sets[157]: 1037
Assign rand_sets[158]: 2061  LLC: 4096
rand_sets[158]: 2061
Assign rand_sets[159]: 1707  LLC: 4096
rand_sets[159]: 1707
Assign rand_sets[160]: 1075  LLC: 4096
rand_sets[160]: 1075
Assign rand_sets[161]: 1933  LLC: 4096
rand_sets[161]: 1933
Assign rand_sets[162]: 1406  LLC: 4096
rand_sets[162]: 1406
Assign rand_sets[163]: 2142  LLC: 4096
rand_sets[163]: 2142
Assign rand_sets[164]: 1423  LLC: 4096
rand_sets[164]: 1423
Assign rand_sets[165]: 1854  LLC: 4096
rand_sets[165]: 1854
Assign rand_sets[166]: 2278  LLC: 4096
rand_sets[166]: 2278
Assign rand_sets[167]: 2152  LLC: 4096
rand_sets[167]: 2152
Assign rand_sets[168]: 3700  LLC: 4096
rand_sets[168]: 3700
Assign rand_sets[169]: 3494  LLC: 4096
rand_sets[169]: 3494
Assign rand_sets[170]: 1338  LLC: 4096
rand_sets[170]: 1338
Assign rand_sets[171]: 177  LLC: 4096
rand_sets[171]: 177
Assign rand_sets[172]: 195  LLC: 4096
rand_sets[172]: 195
Assign rand_sets[173]: 1171  LLC: 4096
rand_sets[173]: 1171
Assign rand_sets[174]: 3345  LLC: 4096
rand_sets[174]: 3345
Assign rand_sets[175]: 3752  LLC: 4096
rand_sets[175]: 3752
Assign rand_sets[176]: 100  LLC: 4096
rand_sets[176]: 100
Assign rand_sets[177]: 711  LLC: 4096
rand_sets[177]: 711
Assign rand_sets[178]: 3291  LLC: 4096
rand_sets[178]: 3291
Assign rand_sets[179]: 1738  LLC: 4096
rand_sets[179]: 1738
Assign rand_sets[180]: 3552  LLC: 4096
rand_sets[180]: 3552
Assign rand_sets[181]: 2144  LLC: 4096
rand_sets[181]: 2144
Assign rand_sets[182]: 3297  LLC: 4096
rand_sets[182]: 3297
Assign rand_sets[183]: 1267  LLC: 4096
rand_sets[183]: 1267
Assign rand_sets[184]: 3775  LLC: 4096
rand_sets[184]: 3775
Assign rand_sets[185]: 1545  LLC: 4096
rand_sets[185]: 1545
Assign rand_sets[186]: 1792  LLC: 4096
rand_sets[186]: 1792
Assign rand_sets[187]: 1383  LLC: 4096
rand_sets[187]: 1383
Assign rand_sets[188]: 4002  LLC: 4096
rand_sets[188]: 4002
Assign rand_sets[189]: 2787  LLC: 4096
rand_sets[189]: 2787
Assign rand_sets[190]: 3109  LLC: 4096
rand_sets[190]: 3109
Assign rand_sets[191]: 672  LLC: 4096
rand_sets[191]: 672
Assign rand_sets[192]: 3105  LLC: 4096
rand_sets[192]: 3105
Assign rand_sets[193]: 1329  LLC: 4096
rand_sets[193]: 1329
Assign rand_sets[194]: 1415  LLC: 4096
rand_sets[194]: 1415
Assign rand_sets[195]: 981  LLC: 4096
rand_sets[195]: 981
Assign rand_sets[196]: 2146  LLC: 4096
rand_sets[196]: 2146
Assign rand_sets[197]: 453  LLC: 4096
rand_sets[197]: 453
Assign rand_sets[198]: 3496  LLC: 4096
rand_sets[198]: 3496
Assign rand_sets[199]: 2127  LLC: 4096
rand_sets[199]: 2127
Assign rand_sets[200]: 2174  LLC: 4096
rand_sets[200]: 2174
Assign rand_sets[201]: 1582  LLC: 4096
rand_sets[201]: 1582
Assign rand_sets[202]: 3337  LLC: 4096
rand_sets[202]: 3337
Assign rand_sets[203]: 2923  LLC: 4096
rand_sets[203]: 2923
Assign rand_sets[204]: 404  LLC: 4096
rand_sets[204]: 404
Assign rand_sets[205]: 415  LLC: 4096
rand_sets[205]: 415
Assign rand_sets[206]: 1712  LLC: 4096
rand_sets[206]: 1712
Assign rand_sets[207]: 3437  LLC: 4096
Assign rand_sets[207]: 169  LLC: 4096
rand_sets[207]: 169
Assign rand_sets[208]: 158  LLC: 4096
rand_sets[208]: 158
Assign rand_sets[209]: 90  LLC: 4096
rand_sets[209]: 90
Assign rand_sets[210]: 3339  LLC: 4096
rand_sets[210]: 3339
Assign rand_sets[211]: 838  LLC: 4096
rand_sets[211]: 838
Assign rand_sets[212]: 3952  LLC: 4096
rand_sets[212]: 3952
Assign rand_sets[213]: 640  LLC: 4096
rand_sets[213]: 640
Assign rand_sets[214]: 3510  LLC: 4096
rand_sets[214]: 3510
Assign rand_sets[215]: 3535  LLC: 4096
rand_sets[215]: 3535
Assign rand_sets[216]: 1863  LLC: 4096
rand_sets[216]: 1863
Assign rand_sets[217]: 3084  LLC: 4096
rand_sets[217]: 3084
Assign rand_sets[218]: 1702  LLC: 4096
Assign rand_sets[218]: 2981  LLC: 4096
rand_sets[218]: 2981
Assign rand_sets[219]: 554  LLC: 4096
rand_sets[219]: 554
Assign rand_sets[220]: 1496  LLC: 4096
rand_sets[220]: 1496
Assign rand_sets[221]: 1708  LLC: 4096
rand_sets[221]: 1708
Assign rand_sets[222]: 1275  LLC: 4096
rand_sets[222]: 1275
Assign rand_sets[223]: 416  LLC: 4096
rand_sets[223]: 416
Assign rand_sets[224]: 491  LLC: 4096
rand_sets[224]: 491
Assign rand_sets[225]: 2231  LLC: 4096
rand_sets[225]: 2231
Assign rand_sets[226]: 1657  LLC: 4096
rand_sets[226]: 1657
Assign rand_sets[227]: 1060  LLC: 4096
rand_sets[227]: 1060
Assign rand_sets[228]: 626  LLC: 4096
rand_sets[228]: 626
Assign rand_sets[229]: 1315  LLC: 4096
rand_sets[229]: 1315
Assign rand_sets[230]: 1682  LLC: 4096
rand_sets[230]: 1682
Assign rand_sets[231]: 1352  LLC: 4096
rand_sets[231]: 1352
Assign rand_sets[232]: 1152  LLC: 4096
rand_sets[232]: 1152
Assign rand_sets[233]: 3013  LLC: 4096
rand_sets[233]: 3013
Assign rand_sets[234]: 1190  LLC: 4096
rand_sets[234]: 1190
Assign rand_sets[235]: 1191  LLC: 4096
rand_sets[235]: 1191
Assign rand_sets[236]: 2693  LLC: 4096
rand_sets[236]: 2693
Assign rand_sets[237]: 695  LLC: 4096
rand_sets[237]: 695
Assign rand_sets[238]: 3543  LLC: 4096
rand_sets[238]: 3543
Assign rand_sets[239]: 3980  LLC: 4096
rand_sets[239]: 3980
Assign rand_sets[240]: 656  LLC: 4096
rand_sets[240]: 656
Assign rand_sets[241]: 1508  LLC: 4096
rand_sets[241]: 1508
Assign rand_sets[242]: 939  LLC: 4096
rand_sets[242]: 939
Assign rand_sets[243]: 2403  LLC: 4096
rand_sets[243]: 2403
Assign rand_sets[244]: 1092  LLC: 4096
rand_sets[244]: 1092
Assign rand_sets[245]: 850  LLC: 4096
rand_sets[245]: 850
Assign rand_sets[246]: 102  LLC: 4096
rand_sets[246]: 102
Assign rand_sets[247]: 3811  LLC: 4096
rand_sets[247]: 3811
Assign rand_sets[248]: 668  LLC: 4096
Assign rand_sets[248]: 51  LLC: 4096
rand_sets[248]: 51
Assign rand_sets[249]: 1317  LLC: 4096
rand_sets[249]: 1317
Assign rand_sets[250]: 4089  LLC: 4096
rand_sets[250]: 4089
Assign rand_sets[251]: 3422  LLC: 4096
rand_sets[251]: 3422
Assign rand_sets[252]: 682  LLC: 4096
rand_sets[252]: 682
Assign rand_sets[253]: 3514  LLC: 4096
rand_sets[253]: 3514
Assign rand_sets[254]: 3187  LLC: 4096
rand_sets[254]: 3187
Assign rand_sets[255]: 3680  LLC: 4096
rand_sets[255]: 3680
Assign rand_sets[256]: 3165  LLC: 4096
rand_sets[256]: 3165
Assign rand_sets[257]: 1611  LLC: 4096
rand_sets[257]: 1611
Assign rand_sets[258]: 3953  LLC: 4096
rand_sets[258]: 3953
Assign rand_sets[259]: 3710  LLC: 4096
rand_sets[259]: 3710
Assign rand_sets[260]: 446  LLC: 4096
rand_sets[260]: 446
Assign rand_sets[261]: 3753  LLC: 4096
rand_sets[261]: 3753
Assign rand_sets[262]: 1420  LLC: 4096
rand_sets[262]: 1420
Assign rand_sets[263]: 3671  LLC: 4096
rand_sets[263]: 3671
Assign rand_sets[264]: 2585  LLC: 4096
rand_sets[264]: 2585
Assign rand_sets[265]: 1905  LLC: 4096
rand_sets[265]: 1905
Assign rand_sets[266]: 2499  LLC: 4096
rand_sets[266]: 2499
Assign rand_sets[267]: 3786  LLC: 4096
rand_sets[267]: 3786
Assign rand_sets[268]: 1118  LLC: 4096
rand_sets[268]: 1118
Assign rand_sets[269]: 1253  LLC: 4096
rand_sets[269]: 1253
Assign rand_sets[270]: 1322  LLC: 4096
rand_sets[270]: 1322
Assign rand_sets[271]: 1331  LLC: 4096
rand_sets[271]: 1331
Assign rand_sets[272]: 3244  LLC: 4096
rand_sets[272]: 3244
Assign rand_sets[273]: 904  LLC: 4096
Assign rand_sets[273]: 3409  LLC: 4096
rand_sets[273]: 3409
Assign rand_sets[274]: 1894  LLC: 4096
rand_sets[274]: 1894
Assign rand_sets[275]: 3745  LLC: 4096
rand_sets[275]: 3745
Assign rand_sets[276]: 2683  LLC: 4096
Assign rand_sets[276]: 3445  LLC: 4096
rand_sets[276]: 3445
Assign rand_sets[277]: 2919  LLC: 4096
rand_sets[277]: 2919
Assign rand_sets[278]: 100  LLC: 4096
Assign rand_sets[278]: 1946  LLC: 4096
rand_sets[278]: 1946
Assign rand_sets[279]: 1641  LLC: 4096
rand_sets[279]: 1641
Assign rand_sets[280]: 1775  LLC: 4096
rand_sets[280]: 1775
Assign rand_sets[281]: 623  LLC: 4096
rand_sets[281]: 623
Assign rand_sets[282]: 342  LLC: 4096
rand_sets[282]: 342
Assign rand_sets[283]: 322  LLC: 4096
rand_sets[283]: 322
Assign rand_sets[284]: 2720  LLC: 4096
rand_sets[284]: 2720
Assign rand_sets[285]: 29  LLC: 4096
rand_sets[285]: 29
Assign rand_sets[286]: 2641  LLC: 4096
rand_sets[286]: 2641
Assign rand_sets[287]: 197  LLC: 4096
rand_sets[287]: 197
Assign rand_sets[288]: 1282  LLC: 4096
rand_sets[288]: 1282
Assign rand_sets[289]: 3319  LLC: 4096
rand_sets[289]: 3319
Assign rand_sets[290]: 699  LLC: 4096
rand_sets[290]: 699
Assign rand_sets[291]: 3474  LLC: 4096
rand_sets[291]: 3474
Assign rand_sets[292]: 2373  LLC: 4096
rand_sets[292]: 2373
Assign rand_sets[293]: 2750  LLC: 4096
rand_sets[293]: 2750
Assign rand_sets[294]: 879  LLC: 4096
rand_sets[294]: 879
Assign rand_sets[295]: 2317  LLC: 4096
rand_sets[295]: 2317
Assign rand_sets[296]: 1462  LLC: 4096
rand_sets[296]: 1462
Assign rand_sets[297]: 1080  LLC: 4096
rand_sets[297]: 1080
Assign rand_sets[298]: 3788  LLC: 4096
rand_sets[298]: 3788
Assign rand_sets[299]: 784  LLC: 4096
rand_sets[299]: 784
Assign rand_sets[300]: 1533  LLC: 4096
rand_sets[300]: 1533
Assign rand_sets[301]: 2235  LLC: 4096
rand_sets[301]: 2235
Assign rand_sets[302]: 852  LLC: 4096
rand_sets[302]: 852
Assign rand_sets[303]: 3665  LLC: 4096
rand_sets[303]: 3665
Assign rand_sets[304]: 3356  LLC: 4096
rand_sets[304]: 3356
Assign rand_sets[305]: 1147  LLC: 4096
rand_sets[305]: 1147
Assign rand_sets[306]: 3079  LLC: 4096
rand_sets[306]: 3079
Assign rand_sets[307]: 3988  LLC: 4096
rand_sets[307]: 3988
Assign rand_sets[308]: 807  LLC: 4096
rand_sets[308]: 807
Assign rand_sets[309]: 403  LLC: 4096
rand_sets[309]: 403
Assign rand_sets[310]: 2685  LLC: 4096
rand_sets[310]: 2685
Assign rand_sets[311]: 914  LLC: 4096
rand_sets[311]: 914
Assign rand_sets[312]: 707  LLC: 4096
rand_sets[312]: 707
Assign rand_sets[313]: 3540  LLC: 4096
rand_sets[313]: 3540
Assign rand_sets[314]: 1734  LLC: 4096
rand_sets[314]: 1734
Assign rand_sets[315]: 1957  LLC: 4096
rand_sets[315]: 1957
Assign rand_sets[316]: 609  LLC: 4096
rand_sets[316]: 609
Assign rand_sets[317]: 337  LLC: 4096
rand_sets[317]: 337
Assign rand_sets[318]: 257  LLC: 4096
rand_sets[318]: 257
Assign rand_sets[319]: 312  LLC: 4096
rand_sets[319]: 312
Assign rand_sets[320]: 1336  LLC: 4096
rand_sets[320]: 1336
Assign rand_sets[321]: 423  LLC: 4096
rand_sets[321]: 423
Assign rand_sets[322]: 191  LLC: 4096
rand_sets[322]: 191
Assign rand_sets[323]: 4081  LLC: 4096
rand_sets[323]: 4081
Assign rand_sets[324]: 4  LLC: 4096
rand_sets[324]: 4
Assign rand_sets[325]: 3597  LLC: 4096
rand_sets[325]: 3597
Assign rand_sets[326]: 3605  LLC: 4096
rand_sets[326]: 3605
Assign rand_sets[327]: 1691  LLC: 4096
rand_sets[327]: 1691
Assign rand_sets[328]: 3456  LLC: 4096
rand_sets[328]: 3456
Assign rand_sets[329]: 31  LLC: 4096
rand_sets[329]: 31
Assign rand_sets[330]: 131  LLC: 4096
rand_sets[330]: 131
Assign rand_sets[331]: 1749  LLC: 4096
rand_sets[331]: 1749
Assign rand_sets[332]: 3748  LLC: 4096
rand_sets[332]: 3748
Assign rand_sets[333]: 3433  LLC: 4096
rand_sets[333]: 3433
Assign rand_sets[334]: 3976  LLC: 4096
rand_sets[334]: 3976
Assign rand_sets[335]: 2940  LLC: 4096
rand_sets[335]: 2940
Assign rand_sets[336]: 671  LLC: 4096
rand_sets[336]: 671
Assign rand_sets[337]: 1462  LLC: 4096
Assign rand_sets[337]: 257  LLC: 4096
Assign rand_sets[337]: 3546  LLC: 4096
Assign rand_sets[337]: 659  LLC: 4096
rand_sets[337]: 659
Assign rand_sets[338]: 2583  LLC: 4096
rand_sets[338]: 2583
Assign rand_sets[339]: 325  LLC: 4096
rand_sets[339]: 325
Assign rand_sets[340]: 395  LLC: 4096
rand_sets[340]: 395
Assign rand_sets[341]: 3346  LLC: 4096
rand_sets[341]: 3346
Assign rand_sets[342]: 2226  LLC: 4096
rand_sets[342]: 2226
Assign rand_sets[343]: 258  LLC: 4096
Assign rand_sets[343]: 819  LLC: 4096
rand_sets[343]: 819
Assign rand_sets[344]: 3420  LLC: 4096
rand_sets[344]: 3420
Assign rand_sets[345]: 2384  LLC: 4096
rand_sets[345]: 2384
Assign rand_sets[346]: 1238  LLC: 4096
rand_sets[346]: 1238
Assign rand_sets[347]: 1505  LLC: 4096
rand_sets[347]: 1505
Assign rand_sets[348]: 2646  LLC: 4096
rand_sets[348]: 2646
Assign rand_sets[349]: 1700  LLC: 4096
rand_sets[349]: 1700
Assign rand_sets[350]: 685  LLC: 4096
rand_sets[350]: 685
Assign rand_sets[351]: 2882  LLC: 4096
rand_sets[351]: 2882
Assign rand_sets[352]: 2378  LLC: 4096
rand_sets[352]: 2378
Assign rand_sets[353]: 92  LLC: 4096
rand_sets[353]: 92
Assign rand_sets[354]: 2269  LLC: 4096
rand_sets[354]: 2269
Assign rand_sets[355]: 646  LLC: 4096
rand_sets[355]: 646
Assign rand_sets[356]: 97  LLC: 4096
rand_sets[356]: 97
Assign rand_sets[357]: 489  LLC: 4096
rand_sets[357]: 489
Assign rand_sets[358]: 2819  LLC: 4096
rand_sets[358]: 2819
Assign rand_sets[359]: 2578  LLC: 4096
rand_sets[359]: 2578
Assign rand_sets[360]: 1249  LLC: 4096
rand_sets[360]: 1249
Assign rand_sets[361]: 2575  LLC: 4096
rand_sets[361]: 2575
Assign rand_sets[362]: 155  LLC: 4096
rand_sets[362]: 155
Assign rand_sets[363]: 4074  LLC: 4096
rand_sets[363]: 4074
Assign rand_sets[364]: 294  LLC: 4096
rand_sets[364]: 294
Assign rand_sets[365]: 3884  LLC: 4096
rand_sets[365]: 3884
Assign rand_sets[366]: 353  LLC: 4096
rand_sets[366]: 353
Assign rand_sets[367]: 3292  LLC: 4096
rand_sets[367]: 3292
Assign rand_sets[368]: 3682  LLC: 4096
rand_sets[368]: 3682
Assign rand_sets[369]: 3144  LLC: 4096
rand_sets[369]: 3144
Assign rand_sets[370]: 2923  LLC: 4096
Assign rand_sets[370]: 1645  LLC: 4096
rand_sets[370]: 1645
Assign rand_sets[371]: 3604  LLC: 4096
rand_sets[371]: 3604
Assign rand_sets[372]: 736  LLC: 4096
rand_sets[372]: 736
Assign rand_sets[373]: 3843  LLC: 4096
rand_sets[373]: 3843
Assign rand_sets[374]: 901  LLC: 4096
rand_sets[374]: 901
Assign rand_sets[375]: 3914  LLC: 4096
rand_sets[375]: 3914
Assign rand_sets[376]: 3442  LLC: 4096
rand_sets[376]: 3442
Assign rand_sets[377]: 3142  LLC: 4096
rand_sets[377]: 3142
Assign rand_sets[378]: 4058  LLC: 4096
rand_sets[378]: 4058
Assign rand_sets[379]: 2966  LLC: 4096
rand_sets[379]: 2966
Assign rand_sets[380]: 3784  LLC: 4096
rand_sets[380]: 3784
Assign rand_sets[381]: 3709  LLC: 4096
rand_sets[381]: 3709
Assign rand_sets[382]: 2588  LLC: 4096
rand_sets[382]: 2588
Assign rand_sets[383]: 2001  LLC: 4096
rand_sets[383]: 2001
Assign rand_sets[384]: 2565  LLC: 4096
rand_sets[384]: 2565
Assign rand_sets[385]: 318  LLC: 4096
rand_sets[385]: 318
Assign rand_sets[386]: 2277  LLC: 4096
rand_sets[386]: 2277
Assign rand_sets[387]: 1170  LLC: 4096
rand_sets[387]: 1170
Assign rand_sets[388]: 3952  LLC: 4096
Assign rand_sets[388]: 2883  LLC: 4096
rand_sets[388]: 2883
Assign rand_sets[389]: 607  LLC: 4096
rand_sets[389]: 607
Assign rand_sets[390]: 2668  LLC: 4096
rand_sets[390]: 2668
Assign rand_sets[391]: 2563  LLC: 4096
rand_sets[391]: 2563
Assign rand_sets[392]: 2821  LLC: 4096
rand_sets[392]: 2821
Assign rand_sets[393]: 691  LLC: 4096
rand_sets[393]: 691
Assign rand_sets[394]: 3563  LLC: 4096
rand_sets[394]: 3563
Assign rand_sets[395]: 2483  LLC: 4096
rand_sets[395]: 2483
Assign rand_sets[396]: 288  LLC: 4096
rand_sets[396]: 288
Assign rand_sets[397]: 3381  LLC: 4096
rand_sets[397]: 3381
Assign rand_sets[398]: 1869  LLC: 4096
rand_sets[398]: 1869
Assign rand_sets[399]: 1662  LLC: 4096
Assign rand_sets[399]: 1126  LLC: 4096
rand_sets[399]: 1126
Assign rand_sets[400]: 1104  LLC: 4096
rand_sets[400]: 1104
Assign rand_sets[401]: 2561  LLC: 4096
rand_sets[401]: 2561
Assign rand_sets[402]: 2102  LLC: 4096
rand_sets[402]: 2102
Assign rand_sets[403]: 3008  LLC: 4096
rand_sets[403]: 3008
Assign rand_sets[404]: 1075  LLC: 4096
Assign rand_sets[404]: 2017  LLC: 4096
rand_sets[404]: 2017
Assign rand_sets[405]: 3855  LLC: 4096
rand_sets[405]: 3855
Assign rand_sets[406]: 2505  LLC: 4096
rand_sets[406]: 2505
Assign rand_sets[407]: 3128  LLC: 4096
rand_sets[407]: 3128
Assign rand_sets[408]: 3118  LLC: 4096
rand_sets[408]: 3118
Assign rand_sets[409]: 2281  LLC: 4096
rand_sets[409]: 2281
Assign rand_sets[410]: 1577  LLC: 4096
rand_sets[410]: 1577
Assign rand_sets[411]: 793  LLC: 4096
rand_sets[411]: 793
Assign rand_sets[412]: 2639  LLC: 4096
rand_sets[412]: 2639
Assign rand_sets[413]: 3934  LLC: 4096
rand_sets[413]: 3934
Assign rand_sets[414]: 177  LLC: 4096
Assign rand_sets[414]: 465  LLC: 4096
rand_sets[414]: 465
Assign rand_sets[415]: 3145  LLC: 4096
rand_sets[415]: 3145
Assign rand_sets[416]: 2699  LLC: 4096
rand_sets[416]: 2699
Assign rand_sets[417]: 2619  LLC: 4096
rand_sets[417]: 2619
Assign rand_sets[418]: 339  LLC: 4096
rand_sets[418]: 339
Assign rand_sets[419]: 3325  LLC: 4096
rand_sets[419]: 3325
Assign rand_sets[420]: 1183  LLC: 4096
rand_sets[420]: 1183
Assign rand_sets[421]: 3903  LLC: 4096
rand_sets[421]: 3903
Assign rand_sets[422]: 1774  LLC: 4096
rand_sets[422]: 1774
Assign rand_sets[423]: 2597  LLC: 4096
rand_sets[423]: 2597
Assign rand_sets[424]: 2597  LLC: 4096
Assign rand_sets[424]: 53  LLC: 4096
rand_sets[424]: 53
Assign rand_sets[425]: 2939  LLC: 4096
rand_sets[425]: 2939
Assign rand_sets[426]: 2573  LLC: 4096
rand_sets[426]: 2573
Assign rand_sets[427]: 785  LLC: 4096
rand_sets[427]: 785
Assign rand_sets[428]: 943  LLC: 4096
rand_sets[428]: 943
Assign rand_sets[429]: 2380  LLC: 4096
rand_sets[429]: 2380
Assign rand_sets[430]: 273  LLC: 4096
rand_sets[430]: 273
Assign rand_sets[431]: 140  LLC: 4096
rand_sets[431]: 140
Assign rand_sets[432]: 3634  LLC: 4096
Assign rand_sets[432]: 3284  LLC: 4096
rand_sets[432]: 3284
Assign rand_sets[433]: 730  LLC: 4096
rand_sets[433]: 730
Assign rand_sets[434]: 2943  LLC: 4096
rand_sets[434]: 2943
Assign rand_sets[435]: 3032  LLC: 4096
rand_sets[435]: 3032
Assign rand_sets[436]: 1046  LLC: 4096
rand_sets[436]: 1046
Assign rand_sets[437]: 2903  LLC: 4096
rand_sets[437]: 2903
Assign rand_sets[438]: 4065  LLC: 4096
rand_sets[438]: 4065
Assign rand_sets[439]: 1958  LLC: 4096
rand_sets[439]: 1958
Assign rand_sets[440]: 2254  LLC: 4096
rand_sets[440]: 2254
Assign rand_sets[441]: 2941  LLC: 4096
rand_sets[441]: 2941
Assign rand_sets[442]: 193  LLC: 4096
rand_sets[442]: 193
Assign rand_sets[443]: 3246  LLC: 4096
rand_sets[443]: 3246
Assign rand_sets[444]: 354  LLC: 4096
rand_sets[444]: 354
Assign rand_sets[445]: 1471  LLC: 4096
rand_sets[445]: 1471
Assign rand_sets[446]: 275  LLC: 4096
Assign rand_sets[446]: 3300  LLC: 4096
rand_sets[446]: 3300
Assign rand_sets[447]: 1159  LLC: 4096
Assign rand_sets[447]: 1612  LLC: 4096
rand_sets[447]: 1612
Assign rand_sets[448]: 3386  LLC: 4096
rand_sets[448]: 3386
Assign rand_sets[449]: 2497  LLC: 4096
rand_sets[449]: 2497
Assign rand_sets[450]: 2995  LLC: 4096
rand_sets[450]: 2995
Assign rand_sets[451]: 780  LLC: 4096
rand_sets[451]: 780
Assign rand_sets[452]: 345  LLC: 4096
rand_sets[452]: 345
Assign rand_sets[453]: 2713  LLC: 4096
rand_sets[453]: 2713
Assign rand_sets[454]: 71  LLC: 4096
rand_sets[454]: 71
Assign rand_sets[455]: 3928  LLC: 4096
rand_sets[455]: 3928
Assign rand_sets[456]: 2138  LLC: 4096
rand_sets[456]: 2138
Assign rand_sets[457]: 3261  LLC: 4096
rand_sets[457]: 3261
Assign rand_sets[458]: 3960  LLC: 4096
Assign rand_sets[458]: 3964  LLC: 4096
rand_sets[458]: 3964
Assign rand_sets[459]: 4026  LLC: 4096
rand_sets[459]: 4026
Assign rand_sets[460]: 2384  LLC: 4096
Assign rand_sets[460]: 257  LLC: 4096
Assign rand_sets[460]: 2029  LLC: 4096
rand_sets[460]: 2029
Assign rand_sets[461]: 3099  LLC: 4096
rand_sets[461]: 3099
Assign rand_sets[462]: 3306  LLC: 4096
rand_sets[462]: 3306
Assign rand_sets[463]: 3210  LLC: 4096
rand_sets[463]: 3210
Assign rand_sets[464]: 1097  LLC: 4096
rand_sets[464]: 1097
Assign rand_sets[465]: 2696  LLC: 4096
rand_sets[465]: 2696
Assign rand_sets[466]: 3310  LLC: 4096
rand_sets[466]: 3310
Assign rand_sets[467]: 2518  LLC: 4096
rand_sets[467]: 2518
Assign rand_sets[468]: 532  LLC: 4096
rand_sets[468]: 532
Assign rand_sets[469]: 2693  LLC: 4096
Assign rand_sets[469]: 1707  LLC: 4096
Assign rand_sets[469]: 1968  LLC: 4096
rand_sets[469]: 1968
Assign rand_sets[470]: 2860  LLC: 4096
rand_sets[470]: 2860
Assign rand_sets[471]: 3294  LLC: 4096
rand_sets[471]: 3294
Assign rand_sets[472]: 1077  LLC: 4096
rand_sets[472]: 1077
Assign rand_sets[473]: 1427  LLC: 4096
rand_sets[473]: 1427
Assign rand_sets[474]: 3089  LLC: 4096
rand_sets[474]: 3089
Assign rand_sets[475]: 813  LLC: 4096
rand_sets[475]: 813
Assign rand_sets[476]: 769  LLC: 4096
rand_sets[476]: 769
Assign rand_sets[477]: 3100  LLC: 4096
rand_sets[477]: 3100
Assign rand_sets[478]: 471  LLC: 4096
rand_sets[478]: 471
Assign rand_sets[479]: 3112  LLC: 4096
rand_sets[479]: 3112
Assign rand_sets[480]: 2115  LLC: 4096
rand_sets[480]: 2115
Assign rand_sets[481]: 48  LLC: 4096
rand_sets[481]: 48
Assign rand_sets[482]: 3047  LLC: 4096
rand_sets[482]: 3047
Assign rand_sets[483]: 2224  LLC: 4096
rand_sets[483]: 2224
Assign rand_sets[484]: 3848  LLC: 4096
rand_sets[484]: 3848
Assign rand_sets[485]: 3309  LLC: 4096
rand_sets[485]: 3309
Assign rand_sets[486]: 3449  LLC: 4096
rand_sets[486]: 3449
Assign rand_sets[487]: 1433  LLC: 4096
rand_sets[487]: 1433
Assign rand_sets[488]: 3091  LLC: 4096
rand_sets[488]: 3091
Assign rand_sets[489]: 81  LLC: 4096
rand_sets[489]: 81
Assign rand_sets[490]: 2770  LLC: 4096
rand_sets[490]: 2770
Assign rand_sets[491]: 1594  LLC: 4096
rand_sets[491]: 1594
Assign rand_sets[492]: 887  LLC: 4096
rand_sets[492]: 887
Assign rand_sets[493]: 1709  LLC: 4096
rand_sets[493]: 1709
Assign rand_sets[494]: 3645  LLC: 4096
rand_sets[494]: 3645
Assign rand_sets[495]: 2996  LLC: 4096
rand_sets[495]: 2996
Assign rand_sets[496]: 3064  LLC: 4096
rand_sets[496]: 3064
Assign rand_sets[497]: 199  LLC: 4096
rand_sets[497]: 199
Assign rand_sets[498]: 202  LLC: 4096
rand_sets[498]: 202
Assign rand_sets[499]: 1283  LLC: 4096
rand_sets[499]: 1283
Assign rand_sets[500]: 3106  LLC: 4096
rand_sets[500]: 3106
Assign rand_sets[501]: 210  LLC: 4096
rand_sets[501]: 210
Assign rand_sets[502]: 713  LLC: 4096
rand_sets[502]: 713
Assign rand_sets[503]: 966  LLC: 4096
rand_sets[503]: 966
Assign rand_sets[504]: 3367  LLC: 4096
rand_sets[504]: 3367
Assign rand_sets[505]: 2575  LLC: 4096
Assign rand_sets[505]: 4  LLC: 4096
Assign rand_sets[505]: 462  LLC: 4096
rand_sets[505]: 462
Assign rand_sets[506]: 3962  LLC: 4096
rand_sets[506]: 3962
Assign rand_sets[507]: 3903  LLC: 4096
Assign rand_sets[507]: 3008  LLC: 4096
Assign rand_sets[507]: 872  LLC: 4096
rand_sets[507]: 872
Assign rand_sets[508]: 3372  LLC: 4096
rand_sets[508]: 3372
Assign rand_sets[509]: 3023  LLC: 4096
rand_sets[509]: 3023
Assign rand_sets[510]: 114  LLC: 4096
rand_sets[510]: 114
Assign rand_sets[511]: 618  LLC: 4096
rand_sets[511]: 618
Assign rand_sets[512]: 1545  LLC: 4096
Assign rand_sets[512]: 962  LLC: 4096
rand_sets[512]: 962
Assign rand_sets[513]: 3906  LLC: 4096
rand_sets[513]: 3906
Assign rand_sets[514]: 3584  LLC: 4096
rand_sets[514]: 3584
Assign rand_sets[515]: 370  LLC: 4096
rand_sets[515]: 370
Assign rand_sets[516]: 1630  LLC: 4096
rand_sets[516]: 1630
Assign rand_sets[517]: 2881  LLC: 4096
rand_sets[517]: 2881
Assign rand_sets[518]: 2868  LLC: 4096
rand_sets[518]: 2868
Assign rand_sets[519]: 504  LLC: 4096
rand_sets[519]: 504
Assign rand_sets[520]: 3990  LLC: 4096
rand_sets[520]: 3990
Assign rand_sets[521]: 3177  LLC: 4096
rand_sets[521]: 3177
Assign rand_sets[522]: 575  LLC: 4096
rand_sets[522]: 575
Assign rand_sets[523]: 1725  LLC: 4096
rand_sets[523]: 1725
Assign rand_sets[524]: 1082  LLC: 4096
rand_sets[524]: 1082
Assign rand_sets[525]: 1624  LLC: 4096
rand_sets[525]: 1624
Assign rand_sets[526]: 1169  LLC: 4096
rand_sets[526]: 1169
Assign rand_sets[527]: 1675  LLC: 4096
rand_sets[527]: 1675
Assign rand_sets[528]: 1249  LLC: 4096
Assign rand_sets[528]: 3788  LLC: 4096
Assign rand_sets[528]: 1954  LLC: 4096
rand_sets[528]: 1954
Assign rand_sets[529]: 177  LLC: 4096
Assign rand_sets[529]: 914  LLC: 4096
Assign rand_sets[529]: 4061  LLC: 4096
rand_sets[529]: 4061
Assign rand_sets[530]: 119  LLC: 4096
rand_sets[530]: 119
Assign rand_sets[531]: 4001  LLC: 4096
rand_sets[531]: 4001
Assign rand_sets[532]: 2101  LLC: 4096
rand_sets[532]: 2101
Assign rand_sets[533]: 510  LLC: 4096
rand_sets[533]: 510
Assign rand_sets[534]: 3059  LLC: 4096
rand_sets[534]: 3059
Assign rand_sets[535]: 2379  LLC: 4096
Assign rand_sets[535]: 4028  LLC: 4096
rand_sets[535]: 4028
Assign rand_sets[536]: 2481  LLC: 4096
rand_sets[536]: 2481
Assign rand_sets[537]: 4067  LLC: 4096
rand_sets[537]: 4067
Assign rand_sets[538]: 2359  LLC: 4096
rand_sets[538]: 2359
Assign rand_sets[539]: 529  LLC: 4096
rand_sets[539]: 529
Assign rand_sets[540]: 1293  LLC: 4096
rand_sets[540]: 1293
Assign rand_sets[541]: 199  LLC: 4096
Assign rand_sets[541]: 101  LLC: 4096
rand_sets[541]: 101
Assign rand_sets[542]: 2750  LLC: 4096
Assign rand_sets[542]: 1265  LLC: 4096
rand_sets[542]: 1265
Assign rand_sets[543]: 2145  LLC: 4096
rand_sets[543]: 2145
Assign rand_sets[544]: 1765  LLC: 4096
rand_sets[544]: 1765
Assign rand_sets[545]: 94  LLC: 4096
rand_sets[545]: 94
Assign rand_sets[546]: 3590  LLC: 4096
rand_sets[546]: 3590
Assign rand_sets[547]: 2303  LLC: 4096
rand_sets[547]: 2303
Assign rand_sets[548]: 2869  LLC: 4096
rand_sets[548]: 2869
Assign rand_sets[549]: 1735  LLC: 4096
rand_sets[549]: 1735
Assign rand_sets[550]: 3446  LLC: 4096
rand_sets[550]: 3446
Assign rand_sets[551]: 2441  LLC: 4096
rand_sets[551]: 2441
Assign rand_sets[552]: 2909  LLC: 4096
rand_sets[552]: 2909
Assign rand_sets[553]: 2036  LLC: 4096
rand_sets[553]: 2036
Assign rand_sets[554]: 3438  LLC: 4096
rand_sets[554]: 3438
Assign rand_sets[555]: 1610  LLC: 4096
rand_sets[555]: 1610
Assign rand_sets[556]: 972  LLC: 4096
rand_sets[556]: 972
Assign rand_sets[557]: 4021  LLC: 4096
rand_sets[557]: 4021
Assign rand_sets[558]: 1364  LLC: 4096
rand_sets[558]: 1364
Assign rand_sets[559]: 638  LLC: 4096
rand_sets[559]: 638
Assign rand_sets[560]: 4081  LLC: 4096
Assign rand_sets[560]: 1557  LLC: 4096
rand_sets[560]: 1557
Assign rand_sets[561]: 456  LLC: 4096
rand_sets[561]: 456
Assign rand_sets[562]: 1696  LLC: 4096
rand_sets[562]: 1696
Assign rand_sets[563]: 2201  LLC: 4096
rand_sets[563]: 2201
Assign rand_sets[564]: 1167  LLC: 4096
rand_sets[564]: 1167
Assign rand_sets[565]: 92  LLC: 4096
Assign rand_sets[565]: 1904  LLC: 4096
rand_sets[565]: 1904
Assign rand_sets[566]: 3083  LLC: 4096
rand_sets[566]: 3083
Assign rand_sets[567]: 495  LLC: 4096
rand_sets[567]: 495
Assign rand_sets[568]: 2836  LLC: 4096
rand_sets[568]: 2836
Assign rand_sets[569]: 454  LLC: 4096
Assign rand_sets[569]: 3045  LLC: 4096
rand_sets[569]: 3045
Assign rand_sets[570]: 266  LLC: 4096
rand_sets[570]: 266
Assign rand_sets[571]: 3996  LLC: 4096
rand_sets[571]: 3996
Assign rand_sets[572]: 1817  LLC: 4096
rand_sets[572]: 1817
Assign rand_sets[573]: 3252  LLC: 4096
rand_sets[573]: 3252
Assign rand_sets[574]: 3613  LLC: 4096
rand_sets[574]: 3613
Assign rand_sets[575]: 3660  LLC: 4096
rand_sets[575]: 3660
Assign rand_sets[576]: 1742  LLC: 4096
rand_sets[576]: 1742
Assign rand_sets[577]: 854  LLC: 4096
rand_sets[577]: 854
Assign rand_sets[578]: 1798  LLC: 4096
rand_sets[578]: 1798
Assign rand_sets[579]: 3292  LLC: 4096
Assign rand_sets[579]: 66  LLC: 4096
rand_sets[579]: 66
Assign rand_sets[580]: 3089  LLC: 4096
Assign rand_sets[580]: 2597  LLC: 4096
Assign rand_sets[580]: 2279  LLC: 4096
rand_sets[580]: 2279
Assign rand_sets[581]: 2454  LLC: 4096
rand_sets[581]: 2454
Assign rand_sets[582]: 1903  LLC: 4096
rand_sets[582]: 1903
Assign rand_sets[583]: 2063  LLC: 4096
rand_sets[583]: 2063
Assign rand_sets[584]: 1569  LLC: 4096
rand_sets[584]: 1569
Assign rand_sets[585]: 1853  LLC: 4096
rand_sets[585]: 1853
Assign rand_sets[586]: 2271  LLC: 4096
rand_sets[586]: 2271
Assign rand_sets[587]: 1017  LLC: 4096
rand_sets[587]: 1017
Assign rand_sets[588]: 1111  LLC: 4096
rand_sets[588]: 1111
Assign rand_sets[589]: 71  LLC: 4096
Assign rand_sets[589]: 781  LLC: 4096
rand_sets[589]: 781
Assign rand_sets[590]: 3807  LLC: 4096
rand_sets[590]: 3807
Assign rand_sets[591]: 2347  LLC: 4096
rand_sets[591]: 2347
Assign rand_sets[592]: 2922  LLC: 4096
rand_sets[592]: 2922
Assign rand_sets[593]: 3580  LLC: 4096
rand_sets[593]: 3580
Assign rand_sets[594]: 2423  LLC: 4096
rand_sets[594]: 2423
Assign rand_sets[595]: 2445  LLC: 4096
rand_sets[595]: 2445
Assign rand_sets[596]: 213  LLC: 4096
rand_sets[596]: 213
Assign rand_sets[597]: 745  LLC: 4096
rand_sets[597]: 745
Assign rand_sets[598]: 2265  LLC: 4096
Assign rand_sets[598]: 3833  LLC: 4096
rand_sets[598]: 3833
Assign rand_sets[599]: 3253  LLC: 4096
rand_sets[599]: 3253
Assign rand_sets[600]: 2528  LLC: 4096
rand_sets[600]: 2528
Assign rand_sets[601]: 2539  LLC: 4096
rand_sets[601]: 2539
Assign rand_sets[602]: 1138  LLC: 4096
rand_sets[602]: 1138
Assign rand_sets[603]: 3716  LLC: 4096
rand_sets[603]: 3716
Assign rand_sets[604]: 1306  LLC: 4096
rand_sets[604]: 1306
Assign rand_sets[605]: 3982  LLC: 4096
rand_sets[605]: 3982
Assign rand_sets[606]: 1858  LLC: 4096
rand_sets[606]: 1858
Assign rand_sets[607]: 276  LLC: 4096
rand_sets[607]: 276
Assign rand_sets[608]: 1565  LLC: 4096
rand_sets[608]: 1565
Assign rand_sets[609]: 1930  LLC: 4096
rand_sets[609]: 1930
Assign rand_sets[610]: 1902  LLC: 4096
rand_sets[610]: 1902
Assign rand_sets[611]: 1887  LLC: 4096
rand_sets[611]: 1887
Assign rand_sets[612]: 2194  LLC: 4096
rand_sets[612]: 2194
Assign rand_sets[613]: 570  LLC: 4096
rand_sets[613]: 570
Assign rand_sets[614]: 1019  LLC: 4096
rand_sets[614]: 1019
Assign rand_sets[615]: 2571  LLC: 4096
rand_sets[615]: 2571
Assign rand_sets[616]: 3813  LLC: 4096
rand_sets[616]: 3813
Assign rand_sets[617]: 2294  LLC: 4096
rand_sets[617]: 2294
Assign rand_sets[618]: 3812  LLC: 4096
rand_sets[618]: 3812
Assign rand_sets[619]: 448  LLC: 4096
rand_sets[619]: 448
Assign rand_sets[620]: 3231  LLC: 4096
rand_sets[620]: 3231
Assign rand_sets[621]: 3909  LLC: 4096
rand_sets[621]: 3909
Assign rand_sets[622]: 1238  LLC: 4096
Assign rand_sets[622]: 2602  LLC: 4096
rand_sets[622]: 2602
Assign rand_sets[623]: 2691  LLC: 4096
rand_sets[623]: 2691
Assign rand_sets[624]: 2751  LLC: 4096
rand_sets[624]: 2751
Assign rand_sets[625]: 1201  LLC: 4096
Assign rand_sets[625]: 2509  LLC: 4096
rand_sets[625]: 2509
Assign rand_sets[626]: 106  LLC: 4096
rand_sets[626]: 106
Assign rand_sets[627]: 3524  LLC: 4096
rand_sets[627]: 3524
Assign rand_sets[628]: 703  LLC: 4096
Assign rand_sets[628]: 2700  LLC: 4096
rand_sets[628]: 2700
Assign rand_sets[629]: 222  LLC: 4096
rand_sets[629]: 222
Assign rand_sets[630]: 223  LLC: 4096
rand_sets[630]: 223
Assign rand_sets[631]: 946  LLC: 4096
rand_sets[631]: 946
Assign rand_sets[632]: 3831  LLC: 4096
rand_sets[632]: 3831
Assign rand_sets[633]: 633  LLC: 4096
rand_sets[633]: 633
Assign rand_sets[634]: 1783  LLC: 4096
rand_sets[634]: 1783
Assign rand_sets[635]: 2912  LLC: 4096
rand_sets[635]: 2912
Assign rand_sets[636]: 87  LLC: 4096
rand_sets[636]: 87
Assign rand_sets[637]: 764  LLC: 4096
rand_sets[637]: 764
Assign rand_sets[638]: 2107  LLC: 4096
rand_sets[638]: 2107
Assign rand_sets[639]: 2877  LLC: 4096
Assign rand_sets[639]: 379  LLC: 4096
rand_sets[639]: 379
Assign rand_sets[640]: 46  LLC: 4096
rand_sets[640]: 46
Assign rand_sets[641]: 4043  LLC: 4096
rand_sets[641]: 4043
Assign rand_sets[642]: 3228  LLC: 4096
rand_sets[642]: 3228
Assign rand_sets[643]: 577  LLC: 4096
rand_sets[643]: 577
Assign rand_sets[644]: 635  LLC: 4096
rand_sets[644]: 635
Assign rand_sets[645]: 2087  LLC: 4096
rand_sets[645]: 2087
Assign rand_sets[646]: 677  LLC: 4096
rand_sets[646]: 677
Assign rand_sets[647]: 4067  LLC: 4096
Assign rand_sets[647]: 1352  LLC: 4096
Assign rand_sets[647]: 600  LLC: 4096
rand_sets[647]: 600
Assign rand_sets[648]: 21  LLC: 4096
rand_sets[648]: 21
Assign rand_sets[649]: 3591  LLC: 4096
rand_sets[649]: 3591
Assign rand_sets[650]: 2327  LLC: 4096
rand_sets[650]: 2327
Assign rand_sets[651]: 992  LLC: 4096
rand_sets[651]: 992
Assign rand_sets[652]: 3257  LLC: 4096
rand_sets[652]: 3257
Assign rand_sets[653]: 1157  LLC: 4096
rand_sets[653]: 1157
Assign rand_sets[654]: 2911  LLC: 4096
rand_sets[654]: 2911
Assign rand_sets[655]: 1891  LLC: 4096
rand_sets[655]: 1891
Assign rand_sets[656]: 1704  LLC: 4096
rand_sets[656]: 1704
Assign rand_sets[657]: 3574  LLC: 4096
rand_sets[657]: 3574
Assign rand_sets[658]: 41  LLC: 4096
rand_sets[658]: 41
Assign rand_sets[659]: 3090  LLC: 4096
rand_sets[659]: 3090
Assign rand_sets[660]: 2883  LLC: 4096
Assign rand_sets[660]: 768  LLC: 4096
rand_sets[660]: 768
Assign rand_sets[661]: 2410  LLC: 4096
rand_sets[661]: 2410
Assign rand_sets[662]: 4059  LLC: 4096
rand_sets[662]: 4059
Assign rand_sets[663]: 1006  LLC: 4096
rand_sets[663]: 1006
Assign rand_sets[664]: 3684  LLC: 4096
rand_sets[664]: 3684
Assign rand_sets[665]: 2084  LLC: 4096
rand_sets[665]: 2084
Assign rand_sets[666]: 82  LLC: 4096
rand_sets[666]: 82
Assign rand_sets[667]: 651  LLC: 4096
rand_sets[667]: 651
Assign rand_sets[668]: 1476  LLC: 4096
rand_sets[668]: 1476
Assign rand_sets[669]: 827  LLC: 4096
rand_sets[669]: 827
Assign rand_sets[670]: 3677  LLC: 4096
rand_sets[670]: 3677
Assign rand_sets[671]: 2491  LLC: 4096
rand_sets[671]: 2491
Assign rand_sets[672]: 821  LLC: 4096
rand_sets[672]: 821
Assign rand_sets[673]: 24  LLC: 4096
rand_sets[673]: 24
Assign rand_sets[674]: 162  LLC: 4096
rand_sets[674]: 162
Assign rand_sets[675]: 3283  LLC: 4096
rand_sets[675]: 3283
Assign rand_sets[676]: 2953  LLC: 4096
rand_sets[676]: 2953
Assign rand_sets[677]: 2303  LLC: 4096
Assign rand_sets[677]: 178  LLC: 4096
rand_sets[677]: 178
Assign rand_sets[678]: 928  LLC: 4096
rand_sets[678]: 928
Assign rand_sets[679]: 3417  LLC: 4096
rand_sets[679]: 3417
Assign rand_sets[680]: 3376  LLC: 4096
rand_sets[680]: 3376
Assign rand_sets[681]: 3826  LLC: 4096
rand_sets[681]: 3826
Assign rand_sets[682]: 3547  LLC: 4096
rand_sets[682]: 3547
Assign rand_sets[683]: 1237  LLC: 4096
rand_sets[683]: 1237
Assign rand_sets[684]: 1729  LLC: 4096
rand_sets[684]: 1729
Assign rand_sets[685]: 2381  LLC: 4096
rand_sets[685]: 2381
Assign rand_sets[686]: 618  LLC: 4096
Assign rand_sets[686]: 75  LLC: 4096
rand_sets[686]: 75
Assign rand_sets[687]: 566  LLC: 4096
rand_sets[687]: 566
Assign rand_sets[688]: 156  LLC: 4096
rand_sets[688]: 156
Assign rand_sets[689]: 1629  LLC: 4096
rand_sets[689]: 1629
Assign rand_sets[690]: 376  LLC: 4096
rand_sets[690]: 376
Assign rand_sets[691]: 998  LLC: 4096
rand_sets[691]: 998
Assign rand_sets[692]: 2256  LLC: 4096
rand_sets[692]: 2256
Assign rand_sets[693]: 1955  LLC: 4096
rand_sets[693]: 1955
Assign rand_sets[694]: 1938  LLC: 4096
rand_sets[694]: 1938
Assign rand_sets[695]: 1805  LLC: 4096
rand_sets[695]: 1805
Assign rand_sets[696]: 4069  LLC: 4096
rand_sets[696]: 4069
Assign rand_sets[697]: 1936  LLC: 4096
rand_sets[697]: 1936
Assign rand_sets[698]: 3601  LLC: 4096
rand_sets[698]: 3601
Assign rand_sets[699]: 688  LLC: 4096
rand_sets[699]: 688
Assign rand_sets[700]: 1926  LLC: 4096
rand_sets[700]: 1926
Assign rand_sets[701]: 271  LLC: 4096
rand_sets[701]: 271
Assign rand_sets[702]: 3137  LLC: 4096
rand_sets[702]: 3137
Assign rand_sets[703]: 52  LLC: 4096
rand_sets[703]: 52
Assign rand_sets[704]: 3456  LLC: 4096
Assign rand_sets[704]: 1702  LLC: 4096
Assign rand_sets[704]: 393  LLC: 4096
rand_sets[704]: 393
Assign rand_sets[705]: 4029  LLC: 4096
rand_sets[705]: 4029
Assign rand_sets[706]: 3817  LLC: 4096
rand_sets[706]: 3817
Assign rand_sets[707]: 1071  LLC: 4096
rand_sets[707]: 1071
Assign rand_sets[708]: 2680  LLC: 4096
rand_sets[708]: 2680
Assign rand_sets[709]: 1607  LLC: 4096
rand_sets[709]: 1607
Assign rand_sets[710]: 525  LLC: 4096
rand_sets[710]: 525
Assign rand_sets[711]: 80  LLC: 4096
rand_sets[711]: 80
Assign rand_sets[712]: 2709  LLC: 4096
Assign rand_sets[712]: 391  LLC: 4096
rand_sets[712]: 391
Assign rand_sets[713]: 795  LLC: 4096
rand_sets[713]: 795
Assign rand_sets[714]: 2495  LLC: 4096
rand_sets[714]: 2495
Assign rand_sets[715]: 1763  LLC: 4096
rand_sets[715]: 1763
Assign rand_sets[716]: 3455  LLC: 4096
rand_sets[716]: 3455
Assign rand_sets[717]: 3988  LLC: 4096
Assign rand_sets[717]: 3127  LLC: 4096
rand_sets[717]: 3127
Assign rand_sets[718]: 3382  LLC: 4096
rand_sets[718]: 3382
Assign rand_sets[719]: 2020  LLC: 4096
rand_sets[719]: 2020
Assign rand_sets[720]: 3183  LLC: 4096
rand_sets[720]: 3183
Assign rand_sets[721]: 2361  LLC: 4096
rand_sets[721]: 2361
Assign rand_sets[722]: 1080  LLC: 4096
Assign rand_sets[722]: 3375  LLC: 4096
rand_sets[722]: 3375
Assign rand_sets[723]: 780  LLC: 4096
Assign rand_sets[723]: 131  LLC: 4096
Assign rand_sets[723]: 58  LLC: 4096
rand_sets[723]: 58
Assign rand_sets[724]: 2949  LLC: 4096
rand_sets[724]: 2949
Assign rand_sets[725]: 223  LLC: 4096
Assign rand_sets[725]: 1105  LLC: 4096
rand_sets[725]: 1105
Assign rand_sets[726]: 2236  LLC: 4096
rand_sets[726]: 2236
Assign rand_sets[727]: 1864  LLC: 4096
rand_sets[727]: 1864
Assign rand_sets[728]: 1497  LLC: 4096
rand_sets[728]: 1497
Assign rand_sets[729]: 1366  LLC: 4096
rand_sets[729]: 1366
Assign rand_sets[730]: 2747  LLC: 4096
rand_sets[730]: 2747
Assign rand_sets[731]: 3449  LLC: 4096
Assign rand_sets[731]: 3477  LLC: 4096
rand_sets[731]: 3477
Assign rand_sets[732]: 633  LLC: 4096
Assign rand_sets[732]: 957  LLC: 4096
rand_sets[732]: 957
Assign rand_sets[733]: 4052  LLC: 4096
rand_sets[733]: 4052
Assign rand_sets[734]: 3912  LLC: 4096
rand_sets[734]: 3912
Assign rand_sets[735]: 2128  LLC: 4096
rand_sets[735]: 2128
Assign rand_sets[736]: 413  LLC: 4096
rand_sets[736]: 413
Assign rand_sets[737]: 1705  LLC: 4096
rand_sets[737]: 1705
Assign rand_sets[738]: 101  LLC: 4096
Assign rand_sets[738]: 3165  LLC: 4096
Assign rand_sets[738]: 791  LLC: 4096
rand_sets[738]: 791
Assign rand_sets[739]: 1148  LLC: 4096
rand_sets[739]: 1148
Assign rand_sets[740]: 1555  LLC: 4096
rand_sets[740]: 1555
Assign rand_sets[741]: 11  LLC: 4096
rand_sets[741]: 11
Assign rand_sets[742]: 1298  LLC: 4096
rand_sets[742]: 1298
Assign rand_sets[743]: 1884  LLC: 4096
rand_sets[743]: 1884
Assign rand_sets[744]: 335  LLC: 4096
rand_sets[744]: 335
Assign rand_sets[745]: 1895  LLC: 4096
rand_sets[745]: 1895
Assign rand_sets[746]: 2224  LLC: 4096
Assign rand_sets[746]: 1028  LLC: 4096
rand_sets[746]: 1028
Assign rand_sets[747]: 481  LLC: 4096
rand_sets[747]: 481
Assign rand_sets[748]: 3998  LLC: 4096
rand_sets[748]: 3998
Assign rand_sets[749]: 3608  LLC: 4096
rand_sets[749]: 3608
Assign rand_sets[750]: 1715  LLC: 4096
rand_sets[750]: 1715
Assign rand_sets[751]: 3072  LLC: 4096
rand_sets[751]: 3072
Assign rand_sets[752]: 314  LLC: 4096
rand_sets[752]: 314
Assign rand_sets[753]: 4094  LLC: 4096
rand_sets[753]: 4094
Assign rand_sets[754]: 1483  LLC: 4096
rand_sets[754]: 1483
Assign rand_sets[755]: 3268  LLC: 4096
rand_sets[755]: 3268
Assign rand_sets[756]: 2588  LLC: 4096
Assign rand_sets[756]: 3063  LLC: 4096
rand_sets[756]: 3063
Assign rand_sets[757]: 555  LLC: 4096
rand_sets[757]: 555
Assign rand_sets[758]: 2384  LLC: 4096
Assign rand_sets[758]: 2872  LLC: 4096
rand_sets[758]: 2872
Assign rand_sets[759]: 894  LLC: 4096
rand_sets[759]: 894
Assign rand_sets[760]: 334  LLC: 4096
rand_sets[760]: 334
Assign rand_sets[761]: 1211  LLC: 4096
rand_sets[761]: 1211
Assign rand_sets[762]: 1555  LLC: 4096
Assign rand_sets[762]: 453  LLC: 4096
Assign rand_sets[762]: 3360  LLC: 4096
rand_sets[762]: 3360
Assign rand_sets[763]: 2243  LLC: 4096
rand_sets[763]: 2243
Assign rand_sets[764]: 1534  LLC: 4096
rand_sets[764]: 1534
Assign rand_sets[765]: 573  LLC: 4096
rand_sets[765]: 573
Assign rand_sets[766]: 1444  LLC: 4096
rand_sets[766]: 1444
Assign rand_sets[767]: 3376  LLC: 4096
Assign rand_sets[767]: 271  LLC: 4096
Assign rand_sets[767]: 996  LLC: 4096
rand_sets[767]: 996
Assign rand_sets[768]: 71  LLC: 4096
Assign rand_sets[768]: 2570  LLC: 4096
rand_sets[768]: 2570
Assign rand_sets[769]: 3300  LLC: 4096
Assign rand_sets[769]: 1362  LLC: 4096
rand_sets[769]: 1362
Assign rand_sets[770]: 257  LLC: 4096
Assign rand_sets[770]: 122  LLC: 4096
rand_sets[770]: 122
Assign rand_sets[771]: 791  LLC: 4096
Assign rand_sets[771]: 1409  LLC: 4096
rand_sets[771]: 1409
Assign rand_sets[772]: 2353  LLC: 4096
rand_sets[772]: 2353
Assign rand_sets[773]: 1664  LLC: 4096
rand_sets[773]: 1664
Assign rand_sets[774]: 384  LLC: 4096
rand_sets[774]: 384
Assign rand_sets[775]: 1375  LLC: 4096
rand_sets[775]: 1375
Assign rand_sets[776]: 2101  LLC: 4096
Assign rand_sets[776]: 346  LLC: 4096
rand_sets[776]: 346
Assign rand_sets[777]: 557  LLC: 4096
rand_sets[777]: 557
Assign rand_sets[778]: 1557  LLC: 4096
Assign rand_sets[778]: 2508  LLC: 4096
rand_sets[778]: 2508
Assign rand_sets[779]: 2736  LLC: 4096
rand_sets[779]: 2736
Assign rand_sets[780]: 1826  LLC: 4096
rand_sets[780]: 1826
Assign rand_sets[781]: 21  LLC: 4096
Assign rand_sets[781]: 3629  LLC: 4096
rand_sets[781]: 3629
Assign rand_sets[782]: 3200  LLC: 4096
rand_sets[782]: 3200
Assign rand_sets[783]: 1489  LLC: 4096
rand_sets[783]: 1489
Assign rand_sets[784]: 3814  LLC: 4096
rand_sets[784]: 3814
Assign rand_sets[785]: 2020  LLC: 4096
Assign rand_sets[785]: 4044  LLC: 4096
rand_sets[785]: 4044
Assign rand_sets[786]: 3672  LLC: 4096
rand_sets[786]: 3672
Assign rand_sets[787]: 3503  LLC: 4096
rand_sets[787]: 3503
Assign rand_sets[788]: 2927  LLC: 4096
rand_sets[788]: 2927
Assign rand_sets[789]: 2565  LLC: 4096
Assign rand_sets[789]: 2685  LLC: 4096
Assign rand_sets[789]: 133  LLC: 4096
rand_sets[789]: 133
Assign rand_sets[790]: 3228  LLC: 4096
Assign rand_sets[790]: 1333  LLC: 4096
rand_sets[790]: 1333
Assign rand_sets[791]: 106  LLC: 4096
Assign rand_sets[791]: 1652  LLC: 4096
rand_sets[791]: 1652
Assign rand_sets[792]: 1440  LLC: 4096
rand_sets[792]: 1440
Assign rand_sets[793]: 3824  LLC: 4096
rand_sets[793]: 3824
Assign rand_sets[794]: 1320  LLC: 4096
rand_sets[794]: 1320
Assign rand_sets[795]: 79  LLC: 4096
rand_sets[795]: 79
Assign rand_sets[796]: 1015  LLC: 4096
rand_sets[796]: 1015
Assign rand_sets[797]: 2553  LLC: 4096
rand_sets[797]: 2553
Assign rand_sets[798]: 2780  LLC: 4096
rand_sets[798]: 2780
Assign rand_sets[799]: 2104  LLC: 4096
rand_sets[799]: 2104
Assign rand_sets[800]: 1792  LLC: 4096
Assign rand_sets[800]: 3763  LLC: 4096
rand_sets[800]: 3763
Assign rand_sets[801]: 1732  LLC: 4096
rand_sets[801]: 1732
Assign rand_sets[802]: 1518  LLC: 4096
rand_sets[802]: 1518
Assign rand_sets[803]: 3156  LLC: 4096
rand_sets[803]: 3156
Assign rand_sets[804]: 1614  LLC: 4096
rand_sets[804]: 1614
Assign rand_sets[805]: 2801  LLC: 4096
rand_sets[805]: 2801
Assign rand_sets[806]: 3033  LLC: 4096
rand_sets[806]: 3033
Assign rand_sets[807]: 1514  LLC: 4096
rand_sets[807]: 1514
Assign rand_sets[808]: 3245  LLC: 4096
rand_sets[808]: 3245
Assign rand_sets[809]: 4034  LLC: 4096
rand_sets[809]: 4034
Assign rand_sets[810]: 2263  LLC: 4096
rand_sets[810]: 2263
Assign rand_sets[811]: 1515  LLC: 4096
rand_sets[811]: 1515
Assign rand_sets[812]: 1305  LLC: 4096
rand_sets[812]: 1305
Assign rand_sets[813]: 2340  LLC: 4096
rand_sets[813]: 2340
Assign rand_sets[814]: 2756  LLC: 4096
rand_sets[814]: 2756
Assign rand_sets[815]: 3158  LLC: 4096
rand_sets[815]: 3158
Assign rand_sets[816]: 3496  LLC: 4096
Assign rand_sets[816]: 907  LLC: 4096
rand_sets[816]: 907
Assign rand_sets[817]: 3531  LLC: 4096
rand_sets[817]: 3531
Assign rand_sets[818]: 596  LLC: 4096
rand_sets[818]: 596
Assign rand_sets[819]: 3435  LLC: 4096
rand_sets[819]: 3435
Assign rand_sets[820]: 1199  LLC: 4096
rand_sets[820]: 1199
Assign rand_sets[821]: 1136  LLC: 4096
rand_sets[821]: 1136
Assign rand_sets[822]: 3928  LLC: 4096
Assign rand_sets[822]: 2394  LLC: 4096
rand_sets[822]: 2394
Assign rand_sets[823]: 3079  LLC: 4096
Assign rand_sets[823]: 1113  LLC: 4096
rand_sets[823]: 1113
Assign rand_sets[824]: 1022  LLC: 4096
rand_sets[824]: 1022
Assign rand_sets[825]: 3072  LLC: 4096
Assign rand_sets[825]: 3846  LLC: 4096
rand_sets[825]: 3846
Assign rand_sets[826]: 991  LLC: 4096
rand_sets[826]: 991
Assign rand_sets[827]: 1697  LLC: 4096
rand_sets[827]: 1697
Assign rand_sets[828]: 3046  LLC: 4096
rand_sets[828]: 3046
Assign rand_sets[829]: 3352  LLC: 4096
rand_sets[829]: 3352
Assign rand_sets[830]: 1113  LLC: 4096
Assign rand_sets[830]: 3514  LLC: 4096
Assign rand_sets[830]: 3265  LLC: 4096
rand_sets[830]: 3265
Assign rand_sets[831]: 1883  LLC: 4096
rand_sets[831]: 1883
Assign rand_sets[832]: 1315  LLC: 4096
Assign rand_sets[832]: 1020  LLC: 4096
rand_sets[832]: 1020
Assign rand_sets[833]: 1883  LLC: 4096
Assign rand_sets[833]: 2078  LLC: 4096
rand_sets[833]: 2078
Assign rand_sets[834]: 2928  LLC: 4096
rand_sets[834]: 2928
Assign rand_sets[835]: 560  LLC: 4096
rand_sets[835]: 560
Assign rand_sets[836]: 1090  LLC: 4096
rand_sets[836]: 1090
Assign rand_sets[837]: 1562  LLC: 4096
rand_sets[837]: 1562
Assign rand_sets[838]: 2772  LLC: 4096
rand_sets[838]: 2772
Assign rand_sets[839]: 2768  LLC: 4096
rand_sets[839]: 2768
Assign rand_sets[840]: 1330  LLC: 4096
rand_sets[840]: 1330
Assign rand_sets[841]: 3954  LLC: 4096
rand_sets[841]: 3954
Assign rand_sets[842]: 2704  LLC: 4096
rand_sets[842]: 2704
Assign rand_sets[843]: 870  LLC: 4096
rand_sets[843]: 870
Assign rand_sets[844]: 2370  LLC: 4096
rand_sets[844]: 2370
Assign rand_sets[845]: 2156  LLC: 4096
rand_sets[845]: 2156
Assign rand_sets[846]: 925  LLC: 4096
rand_sets[846]: 925
Assign rand_sets[847]: 1954  LLC: 4096
Assign rand_sets[847]: 2001  LLC: 4096
Assign rand_sets[847]: 2541  LLC: 4096
rand_sets[847]: 2541
Assign rand_sets[848]: 887  LLC: 4096
Assign rand_sets[848]: 574  LLC: 4096
rand_sets[848]: 574
Assign rand_sets[849]: 3632  LLC: 4096
rand_sets[849]: 3632
Assign rand_sets[850]: 2998  LLC: 4096
rand_sets[850]: 2998
Assign rand_sets[851]: 4014  LLC: 4096
rand_sets[851]: 4014
Assign rand_sets[852]: 1938  LLC: 4096
Assign rand_sets[852]: 3085  LLC: 4096
rand_sets[852]: 3085
Assign rand_sets[853]: 1633  LLC: 4096
rand_sets[853]: 1633
Assign rand_sets[854]: 1582  LLC: 4096
Assign rand_sets[854]: 3574  LLC: 4096
Assign rand_sets[854]: 2722  LLC: 4096
rand_sets[854]: 2722
Assign rand_sets[855]: 2330  LLC: 4096
rand_sets[855]: 2330
Assign rand_sets[856]: 1609  LLC: 4096
rand_sets[856]: 1609
Assign rand_sets[857]: 4059  LLC: 4096
Assign rand_sets[857]: 2721  LLC: 4096
rand_sets[857]: 2721
Assign rand_sets[858]: 3869  LLC: 4096
rand_sets[858]: 3869
Assign rand_sets[859]: 3721  LLC: 4096
rand_sets[859]: 3721
Assign rand_sets[860]: 936  LLC: 4096
rand_sets[860]: 936
Assign rand_sets[861]: 1246  LLC: 4096
rand_sets[861]: 1246
Assign rand_sets[862]: 242  LLC: 4096
rand_sets[862]: 242
Assign rand_sets[863]: 2872  LLC: 4096
Assign rand_sets[863]: 1366  LLC: 4096
Assign rand_sets[863]: 2490  LLC: 4096
rand_sets[863]: 2490
Assign rand_sets[864]: 3435  LLC: 4096
Assign rand_sets[864]: 427  LLC: 4096
rand_sets[864]: 427
Assign rand_sets[865]: 3530  LLC: 4096
rand_sets[865]: 3530
Assign rand_sets[866]: 2899  LLC: 4096
Assign rand_sets[866]: 1626  LLC: 4096
rand_sets[866]: 1626
Assign rand_sets[867]: 1107  LLC: 4096
rand_sets[867]: 1107
Assign rand_sets[868]: 1014  LLC: 4096
rand_sets[868]: 1014
Assign rand_sets[869]: 3693  LLC: 4096
rand_sets[869]: 3693
Assign rand_sets[870]: 3347  LLC: 4096
rand_sets[870]: 3347
Assign rand_sets[871]: 2945  LLC: 4096
rand_sets[871]: 2945
Assign rand_sets[872]: 942  LLC: 4096
rand_sets[872]: 942
Assign rand_sets[873]: 3615  LLC: 4096
rand_sets[873]: 3615
Assign rand_sets[874]: 2725  LLC: 4096
rand_sets[874]: 2725
Assign rand_sets[875]: 3836  LLC: 4096
rand_sets[875]: 3836
Assign rand_sets[876]: 1610  LLC: 4096
Assign rand_sets[876]: 3645  LLC: 4096
Assign rand_sets[876]: 4055  LLC: 4096
rand_sets[876]: 4055
Assign rand_sets[877]: 3141  LLC: 4096
rand_sets[877]: 3141
Assign rand_sets[878]: 2305  LLC: 4096
rand_sets[878]: 2305
Assign rand_sets[879]: 2185  LLC: 4096
rand_sets[879]: 2185
Assign rand_sets[880]: 2276  LLC: 4096
rand_sets[880]: 2276
Assign rand_sets[881]: 1444  LLC: 4096
Assign rand_sets[881]: 3328  LLC: 4096
rand_sets[881]: 3328
Assign rand_sets[882]: 152  LLC: 4096
rand_sets[882]: 152
Assign rand_sets[883]: 246  LLC: 4096
rand_sets[883]: 246
Assign rand_sets[884]: 1531  LLC: 4096
Assign rand_sets[884]: 3405  LLC: 4096
rand_sets[884]: 3405
Assign rand_sets[885]: 2694  LLC: 4096
rand_sets[885]: 2694
Assign rand_sets[886]: 356  LLC: 4096
rand_sets[886]: 356
Assign rand_sets[887]: 1350  LLC: 4096
rand_sets[887]: 1350
Assign rand_sets[888]: 1631  LLC: 4096
rand_sets[888]: 1631
Assign rand_sets[889]: 89  LLC: 4096
rand_sets[889]: 89
Assign rand_sets[890]: 2220  LLC: 4096
rand_sets[890]: 2220
Assign rand_sets[891]: 2549  LLC: 4096
rand_sets[891]: 2549
Assign rand_sets[892]: 2937  LLC: 4096
rand_sets[892]: 2937
Assign rand_sets[893]: 566  LLC: 4096
Assign rand_sets[893]: 1327  LLC: 4096
rand_sets[893]: 1327
Assign rand_sets[894]: 746  LLC: 4096
rand_sets[894]: 746
Assign rand_sets[895]: 1482  LLC: 4096
rand_sets[895]: 1482
Assign rand_sets[896]: 3398  LLC: 4096
rand_sets[896]: 3398
Assign rand_sets[897]: 4015  LLC: 4096
rand_sets[897]: 4015
Assign rand_sets[898]: 1616  LLC: 4096
rand_sets[898]: 1616
Assign rand_sets[899]: 2374  LLC: 4096
rand_sets[899]: 2374
Assign rand_sets[900]: 1382  LLC: 4096
Assign rand_sets[900]: 393  LLC: 4096
Assign rand_sets[900]: 289  LLC: 4096
rand_sets[900]: 289
Assign rand_sets[901]: 2882  LLC: 4096
Assign rand_sets[901]: 3473  LLC: 4096
rand_sets[901]: 3473
Assign rand_sets[902]: 689  LLC: 4096
rand_sets[902]: 689
Assign rand_sets[903]: 886  LLC: 4096
rand_sets[903]: 886
Assign rand_sets[904]: 1746  LLC: 4096
rand_sets[904]: 1746
Assign rand_sets[905]: 2829  LLC: 4096
rand_sets[905]: 2829
Assign rand_sets[906]: 2930  LLC: 4096
rand_sets[906]: 2930
Assign rand_sets[907]: 1421  LLC: 4096
rand_sets[907]: 1421
Assign rand_sets[908]: 2787  LLC: 4096
Assign rand_sets[908]: 3928  LLC: 4096
Assign rand_sets[908]: 1507  LLC: 4096
rand_sets[908]: 1507
Assign rand_sets[909]: 412  LLC: 4096
rand_sets[909]: 412
Assign rand_sets[910]: 3607  LLC: 4096
rand_sets[910]: 3607
Assign rand_sets[911]: 1233  LLC: 4096
rand_sets[911]: 1233
Assign rand_sets[912]: 2856  LLC: 4096
rand_sets[912]: 2856
Assign rand_sets[913]: 3672  LLC: 4096
Assign rand_sets[913]: 1123  LLC: 4096
rand_sets[913]: 1123
Assign rand_sets[914]: 2599  LLC: 4096
rand_sets[914]: 2599
Assign rand_sets[915]: 2158  LLC: 4096
rand_sets[915]: 2158
Assign rand_sets[916]: 1604  LLC: 4096
rand_sets[916]: 1604
Assign rand_sets[917]: 619  LLC: 4096
rand_sets[917]: 619
Assign rand_sets[918]: 2178  LLC: 4096
rand_sets[918]: 2178
Assign rand_sets[919]: 1956  LLC: 4096
rand_sets[919]: 1956
Assign rand_sets[920]: 1978  LLC: 4096
rand_sets[920]: 1978
Assign rand_sets[921]: 2712  LLC: 4096
rand_sets[921]: 2712
Assign rand_sets[922]: 115  LLC: 4096
rand_sets[922]: 115
Assign rand_sets[923]: 2042  LLC: 4096
rand_sets[923]: 2042
Assign rand_sets[924]: 2491  LLC: 4096
Assign rand_sets[924]: 4095  LLC: 4096
rand_sets[924]: 4095
Assign rand_sets[925]: 2460  LLC: 4096
rand_sets[925]: 2460
Assign rand_sets[926]: 538  LLC: 4096
rand_sets[926]: 538
Assign rand_sets[927]: 374  LLC: 4096
rand_sets[927]: 374
Assign rand_sets[928]: 2802  LLC: 4096
rand_sets[928]: 2802
Assign rand_sets[929]: 287  LLC: 4096
rand_sets[929]: 287
Assign rand_sets[930]: 1065  LLC: 4096
rand_sets[930]: 1065
Assign rand_sets[931]: 1177  LLC: 4096
rand_sets[931]: 1177
Assign rand_sets[932]: 2914  LLC: 4096
rand_sets[932]: 2914
Assign rand_sets[933]: 712  LLC: 4096
rand_sets[933]: 712
Assign rand_sets[934]: 380  LLC: 4096
rand_sets[934]: 380
Assign rand_sets[935]: 1115  LLC: 4096
Assign rand_sets[935]: 1275  LLC: 4096
Assign rand_sets[935]: 2297  LLC: 4096
rand_sets[935]: 2297
Assign rand_sets[936]: 538  LLC: 4096
Assign rand_sets[936]: 3398  LLC: 4096
Assign rand_sets[936]: 253  LLC: 4096
rand_sets[936]: 253
Assign rand_sets[937]: 3929  LLC: 4096
Assign rand_sets[937]: 3574  LLC: 4096
Assign rand_sets[937]: 1989  LLC: 4096
rand_sets[937]: 1989
Assign rand_sets[938]: 475  LLC: 4096
rand_sets[938]: 475
Assign rand_sets[939]: 1084  LLC: 4096
rand_sets[939]: 1084
Assign rand_sets[940]: 4073  LLC: 4096
rand_sets[940]: 4073
Assign rand_sets[941]: 1393  LLC: 4096
rand_sets[941]: 1393
Assign rand_sets[942]: 1174  LLC: 4096
rand_sets[942]: 1174
Assign rand_sets[943]: 1232  LLC: 4096
rand_sets[943]: 1232
Assign rand_sets[944]: 3185  LLC: 4096
rand_sets[944]: 3185
Assign rand_sets[945]: 1820  LLC: 4096
rand_sets[945]: 1820
Assign rand_sets[946]: 3032  LLC: 4096
Assign rand_sets[946]: 13  LLC: 4096
rand_sets[946]: 13
Assign rand_sets[947]: 2092  LLC: 4096
rand_sets[947]: 2092
Assign rand_sets[948]: 1945  LLC: 4096
Assign rand_sets[948]: 208  LLC: 4096
rand_sets[948]: 208
Assign rand_sets[949]: 3162  LLC: 4096
rand_sets[949]: 3162
Assign rand_sets[950]: 2578  LLC: 4096
Assign rand_sets[950]: 1873  LLC: 4096
rand_sets[950]: 1873
Assign rand_sets[951]: 1488  LLC: 4096
rand_sets[951]: 1488
Assign rand_sets[952]: 3072  LLC: 4096
Assign rand_sets[952]: 1397  LLC: 4096
rand_sets[952]: 1397
Assign rand_sets[953]: 1159  LLC: 4096
Assign rand_sets[953]: 1704  LLC: 4096
Assign rand_sets[953]: 3151  LLC: 4096
rand_sets[953]: 3151
Assign rand_sets[954]: 1978  LLC: 4096
Assign rand_sets[954]: 3174  LLC: 4096
rand_sets[954]: 3174
Assign rand_sets[955]: 704  LLC: 4096
rand_sets[955]: 704
Assign rand_sets[956]: 2962  LLC: 4096
rand_sets[956]: 2962
Assign rand_sets[957]: 1493  LLC: 4096
rand_sets[957]: 1493
Assign rand_sets[958]: 208  LLC: 4096
Assign rand_sets[958]: 3319  LLC: 4096
Assign rand_sets[958]: 436  LLC: 4096
rand_sets[958]: 436
Assign rand_sets[959]: 1414  LLC: 4096
Assign rand_sets[959]: 3813  LLC: 4096
Assign rand_sets[959]: 3391  LLC: 4096
rand_sets[959]: 3391
Assign rand_sets[960]: 1967  LLC: 4096
rand_sets[960]: 1967
Assign rand_sets[961]: 3669  LLC: 4096
rand_sets[961]: 3669
Assign rand_sets[962]: 597  LLC: 4096
rand_sets[962]: 597
Assign rand_sets[963]: 4085  LLC: 4096
rand_sets[963]: 4085
Assign rand_sets[964]: 2488  LLC: 4096
rand_sets[964]: 2488
Assign rand_sets[965]: 3662  LLC: 4096
rand_sets[965]: 3662
Assign rand_sets[966]: 358  LLC: 4096
rand_sets[966]: 358
Assign rand_sets[967]: 3841  LLC: 4096
rand_sets[967]: 3841
Assign rand_sets[968]: 44  LLC: 4096
rand_sets[968]: 44
Assign rand_sets[969]: 3709  LLC: 4096
Assign rand_sets[969]: 3524  LLC: 4096
Assign rand_sets[969]: 178  LLC: 4096
Assign rand_sets[969]: 2872  LLC: 4096
Assign rand_sets[969]: 808  LLC: 4096
rand_sets[969]: 808
Assign rand_sets[970]: 1548  LLC: 4096
rand_sets[970]: 1548
Assign rand_sets[971]: 2134  LLC: 4096
rand_sets[971]: 2134
Assign rand_sets[972]: 3403  LLC: 4096
rand_sets[972]: 3403
Assign rand_sets[973]: 975  LLC: 4096
rand_sets[973]: 975
Assign rand_sets[974]: 1047  LLC: 4096
rand_sets[974]: 1047
Assign rand_sets[975]: 1180  LLC: 4096
rand_sets[975]: 1180
Assign rand_sets[976]: 61  LLC: 4096
rand_sets[976]: 61
Assign rand_sets[977]: 1764  LLC: 4096
rand_sets[977]: 1764
Assign rand_sets[978]: 1031  LLC: 4096
rand_sets[978]: 1031
Assign rand_sets[979]: 1963  LLC: 4096
rand_sets[979]: 1963
Assign rand_sets[980]: 316  LLC: 4096
rand_sets[980]: 316
Assign rand_sets[981]: 3402  LLC: 4096
rand_sets[981]: 3402
Assign rand_sets[982]: 18  LLC: 4096
rand_sets[982]: 18
Assign rand_sets[983]: 1278  LLC: 4096
rand_sets[983]: 1278
Assign rand_sets[984]: 3963  LLC: 4096
rand_sets[984]: 3963
Assign rand_sets[985]: 2448  LLC: 4096
rand_sets[985]: 2448
Assign rand_sets[986]: 3345  LLC: 4096
Assign rand_sets[986]: 262  LLC: 4096
rand_sets[986]: 262
Assign rand_sets[987]: 2457  LLC: 4096
rand_sets[987]: 2457
Assign rand_sets[988]: 3818  LLC: 4096
Assign rand_sets[988]: 967  LLC: 4096
Assign rand_sets[988]: 3709  LLC: 4096
Assign rand_sets[988]: 1489  LLC: 4096
Assign rand_sets[988]: 1011  LLC: 4096
rand_sets[988]: 1011
Assign rand_sets[989]: 754  LLC: 4096
rand_sets[989]: 754
Assign rand_sets[990]: 1420  LLC: 4096
Assign rand_sets[990]: 231  LLC: 4096
rand_sets[990]: 231
Assign rand_sets[991]: 1317  LLC: 4096
Assign rand_sets[991]: 1556  LLC: 4096
rand_sets[991]: 1556
Assign rand_sets[992]: 156  LLC: 4096
Assign rand_sets[992]: 4046  LLC: 4096
rand_sets[992]: 4046
Assign rand_sets[993]: 788  LLC: 4096
rand_sets[993]: 788
Assign rand_sets[994]: 3326  LLC: 4096
rand_sets[994]: 3326
Assign rand_sets[995]: 2812  LLC: 4096
rand_sets[995]: 2812
Assign rand_sets[996]: 25  LLC: 4096
rand_sets[996]: 25
Assign rand_sets[997]: 2157  LLC: 4096
rand_sets[997]: 2157
Assign rand_sets[998]: 33  LLC: 4096
rand_sets[998]: 33
Assign rand_sets[999]: 3383  LLC: 4096
rand_sets[999]: 3383
Assign rand_sets[1000]: 808  LLC: 4096
Assign rand_sets[1000]: 946  LLC: 4096
Assign rand_sets[1000]: 3476  LLC: 4096
rand_sets[1000]: 3476
Assign rand_sets[1001]: 819  LLC: 4096
Assign rand_sets[1001]: 15  LLC: 4096
Assign rand_sets[1001]: 179  LLC: 4096
rand_sets[1001]: 179
Assign rand_sets[1002]: 2788  LLC: 4096
rand_sets[1002]: 2788
Assign rand_sets[1003]: 2058  LLC: 4096
rand_sets[1003]: 2058
Assign rand_sets[1004]: 2117  LLC: 4096
rand_sets[1004]: 2117
Assign rand_sets[1005]: 3531  LLC: 4096
Assign rand_sets[1005]: 1951  LLC: 4096
rand_sets[1005]: 1951
Assign rand_sets[1006]: 936  LLC: 4096
Assign rand_sets[1006]: 2833  LLC: 4096
rand_sets[1006]: 2833
Assign rand_sets[1007]: 2272  LLC: 4096
rand_sets[1007]: 2272
Assign rand_sets[1008]: 3231  LLC: 4096
Assign rand_sets[1008]: 1577  LLC: 4096
Assign rand_sets[1008]: 948  LLC: 4096
rand_sets[1008]: 948
Assign rand_sets[1009]: 24  LLC: 4096
Assign rand_sets[1009]: 1047  LLC: 4096
Assign rand_sets[1009]: 3311  LLC: 4096
rand_sets[1009]: 3311
Assign rand_sets[1010]: 3671  LLC: 4096
Assign rand_sets[1010]: 604  LLC: 4096
rand_sets[1010]: 604
Assign rand_sets[1011]: 1631  LLC: 4096
Assign rand_sets[1011]: 3462  LLC: 4096
rand_sets[1011]: 3462
Assign rand_sets[1012]: 4019  LLC: 4096
rand_sets[1012]: 4019
Assign rand_sets[1013]: 2957  LLC: 4096
rand_sets[1013]: 2957
Assign rand_sets[1014]: 1919  LLC: 4096
rand_sets[1014]: 1919
Assign rand_sets[1015]: 569  LLC: 4096
rand_sets[1015]: 569
Assign rand_sets[1016]: 2946  LLC: 4096
rand_sets[1016]: 2946
Assign rand_sets[1017]: 2185  LLC: 4096
Assign rand_sets[1017]: 381  LLC: 4096
rand_sets[1017]: 381
Assign rand_sets[1018]: 1137  LLC: 4096
rand_sets[1018]: 1137
Assign rand_sets[1019]: 1449  LLC: 4096
rand_sets[1019]: 1449
Assign rand_sets[1020]: 3804  LLC: 4096
rand_sets[1020]: 3804
Assign rand_sets[1021]: 1895  LLC: 4096
Assign rand_sets[1021]: 208  LLC: 4096
Assign rand_sets[1021]: 2594  LLC: 4096
rand_sets[1021]: 2594
Assign rand_sets[1022]: 1094  LLC: 4096
rand_sets[1022]: 1094
Assign rand_sets[1023]: 3359  LLC: 4096
rand_sets[1023]: 3359
Heartbeat CPU 0 instructions: 10000000 cycles: 3427155 heartbeat IPC: 2.91787 cumulative IPC: 2.91787 (Simulation time: 0 hr 0 min 41 sec) 
Heartbeat CPU 3 instructions: 10000003 cycles: 4015523 heartbeat IPC: 2.49034 cumulative IPC: 2.49034 (Simulation time: 0 hr 0 min 47 sec) 
Heartbeat CPU 2 instructions: 10000000 cycles: 4114779 heartbeat IPC: 2.43026 cumulative IPC: 2.43026 (Simulation time: 0 hr 0 min 48 sec) 
Heartbeat CPU 1 instructions: 10000001 cycles: 4675452 heartbeat IPC: 2.13883 cumulative IPC: 2.13883 (Simulation time: 0 hr 0 min 52 sec) 

Warmup complete CPU 0 instructions: 13650807 cycles: 4675452 (Simulation time: 0 hr 0 min 52 sec) 
Warmup complete CPU 1 instructions: 10000001 cycles: 4675452 (Simulation time: 0 hr 0 min 52 sec) 
Warmup complete CPU 2 instructions: 10865416 cycles: 4675451 (Simulation time: 0 hr 0 min 52 sec) 
Warmup complete CPU 3 instructions: 11571554 cycles: 4675451 (Simulation time: 0 hr 0 min 52 sec) 

Heartbeat CPU 3 instructions: 20000001 cycles: 12280908 heartbeat IPC: 1.20986 cumulative IPC: 1.10821 (Simulation time: 0 hr 1 min 18 sec) 
Heartbeat CPU 1 instructions: 20000001 cycles: 13129405 heartbeat IPC: 1.18288 cumulative IPC: 1.18288 (Simulation time: 0 hr 1 min 22 sec) 
Heartbeat CPU 0 instructions: 20000000 cycles: 14000492 heartbeat IPC: 0.945775 cumulative IPC: 0.680876 (Simulation time: 0 hr 1 min 25 sec) 
Heartbeat CPU 3 instructions: 30000003 cycles: 21192223 heartbeat IPC: 1.12217 cumulative IPC: 1.11574 (Simulation time: 0 hr 1 min 50 sec) 
Heartbeat CPU 1 instructions: 30000000 cycles: 21568542 heartbeat IPC: 1.18496 cumulative IPC: 1.18392 (Simulation time: 0 hr 1 min 51 sec) 
Heartbeat CPU 0 instructions: 30000000 cycles: 28665374 heartbeat IPC: 0.681901 cumulative IPC: 0.681503 (Simulation time: 0 hr 2 min 16 sec) 
Heartbeat CPU 1 instructions: 40000000 cycles: 30031704 heartbeat IPC: 1.18159 cumulative IPC: 1.18314 (Simulation time: 0 hr 2 min 20 sec) 
Heartbeat CPU 3 instructions: 40000003 cycles: 30036714 heartbeat IPC: 1.13065 cumulative IPC: 1.12094 (Simulation time: 0 hr 2 min 20 sec) 
Heartbeat CPU 2 instructions: 20000002 cycles: 32321194 heartbeat IPC: 0.354529 cumulative IPC: 0.330416 (Simulation time: 0 hr 2 min 29 sec) 
Heartbeat CPU 1 instructions: 50000000 cycles: 38658364 heartbeat IPC: 1.1592 cumulative IPC: 1.17706 (Simulation time: 0 hr 2 min 51 sec) 
Heartbeat CPU 3 instructions: 50000003 cycles: 38886230 heartbeat IPC: 1.13001 cumulative IPC: 1.12328 (Simulation time: 0 hr 2 min 52 sec) 
Heartbeat CPU 0 instructions: 40000001 cycles: 43956960 heartbeat IPC: 0.653954 cumulative IPC: 0.670779 (Simulation time: 0 hr 3 min 9 sec) 
Heartbeat CPU 1 instructions: 60000000 cycles: 47078803 heartbeat IPC: 1.18759 cumulative IPC: 1.17915 (Simulation time: 0 hr 3 min 20 sec) 
Finished CPU 1 instructions: 50000000 cycles: 42403352 cumulative IPC: 1.17915 (Simulation time: 0 hr 3 min 20 sec) 
Heartbeat CPU 3 instructions: 60000000 cycles: 47696713 heartbeat IPC: 1.13501 cumulative IPC: 1.12569 (Simulation time: 0 hr 3 min 22 sec) 
Finished CPU 3 instructions: 50000000 cycles: 44444624 cumulative IPC: 1.125 (Simulation time: 0 hr 3 min 27 sec) 
Heartbeat CPU 1 instructions: 70000000 cycles: 55516471 heartbeat IPC: 1.18516 cumulative IPC: 1.18015 (Simulation time: 0 hr 3 min 49 sec) 
Heartbeat CPU 3 instructions: 70000002 cycles: 56535665 heartbeat IPC: 1.13136 cumulative IPC: 1.12665 (Simulation time: 0 hr 3 min 53 sec) 
Heartbeat CPU 0 instructions: 50000000 cycles: 58926557 heartbeat IPC: 0.668021 cumulative IPC: 0.670018 (Simulation time: 0 hr 4 min 1 sec) 
Heartbeat CPU 2 instructions: 30000000 cycles: 62587930 heartbeat IPC: 0.330396 cumulative IPC: 0.330405 (Simulation time: 0 hr 4 min 13 sec) 
Heartbeat CPU 1 instructions: 80000001 cycles: 64065747 heartbeat IPC: 1.16969 cumulative IPC: 1.17864 (Simulation time: 0 hr 4 min 18 sec) 
Heartbeat CPU 3 instructions: 80000000 cycles: 65379939 heartbeat IPC: 1.13067 cumulative IPC: 1.12724 (Simulation time: 0 hr 4 min 22 sec) 
Heartbeat CPU 1 instructions: 90000001 cycles: 72487373 heartbeat IPC: 1.18742 cumulative IPC: 1.17973 (Simulation time: 0 hr 4 min 47 sec) 
Heartbeat CPU 0 instructions: 60000002 cycles: 73886885 heartbeat IPC: 0.668435 cumulative IPC: 0.669675 (Simulation time: 0 hr 4 min 52 sec) 
Heartbeat CPU 3 instructions: 90000002 cycles: 74294112 heartbeat IPC: 1.12181 cumulative IPC: 1.12654 (Simulation time: 0 hr 4 min 53 sec) 
Finished CPU 0 instructions: 50000000 cycles: 74962863 cumulative IPC: 0.666997 (Simulation time: 0 hr 5 min 11 sec) 
Heartbeat CPU 1 instructions: 100000003 cycles: 81081997 heartbeat IPC: 1.16352 cumulative IPC: 1.17791 (Simulation time: 0 hr 5 min 16 sec) 
Heartbeat CPU 3 instructions: 100000001 cycles: 83147677 heartbeat IPC: 1.12949 cumulative IPC: 1.12688 (Simulation time: 0 hr 5 min 23 sec) 
Heartbeat CPU 0 instructions: 70000001 cycles: 88493395 heartbeat IPC: 0.684626 cumulative IPC: 0.672281 (Simulation time: 0 hr 5 min 41 sec) 
Heartbeat CPU 1 instructions: 110000000 cycles: 89517729 heartbeat IPC: 1.18543 cumulative IPC: 1.17866 (Simulation time: 0 hr 5 min 45 sec) 
Heartbeat CPU 3 instructions: 110000000 cycles: 92068829 heartbeat IPC: 1.12093 cumulative IPC: 1.12627 (Simulation time: 0 hr 5 min 53 sec) 
Heartbeat CPU 2 instructions: 40000000 cycles: 93143359 heartbeat IPC: 0.327274 cumulative IPC: 0.329324 (Simulation time: 0 hr 5 min 57 sec) 
Heartbeat CPU 1 instructions: 120000002 cycles: 98025319 heartbeat IPC: 1.17542 cumulative IPC: 1.17836 (Simulation time: 0 hr 6 min 13 sec) 
Heartbeat CPU 3 instructions: 120000000 cycles: 100915623 heartbeat IPC: 1.13035 cumulative IPC: 1.12664 (Simulation time: 0 hr 6 min 23 sec) 
Heartbeat CPU 0 instructions: 80000002 cycles: 103729499 heartbeat IPC: 0.656336 cumulative IPC: 0.669828 (Simulation time: 0 hr 6 min 32 sec) 
Heartbeat CPU 1 instructions: 130000002 cycles: 106453740 heartbeat IPC: 1.18646 cumulative IPC: 1.17903 (Simulation time: 0 hr 6 min 42 sec) 
Heartbeat CPU 3 instructions: 130000000 cycles: 109956259 heartbeat IPC: 1.10612 cumulative IPC: 1.12488 (Simulation time: 0 hr 6 min 54 sec) 
Heartbeat CPU 1 instructions: 140000000 cycles: 115063308 heartbeat IPC: 1.1615 cumulative IPC: 1.17767 (Simulation time: 0 hr 7 min 11 sec) 
Heartbeat CPU 3 instructions: 140000002 cycles: 118759621 heartbeat IPC: 1.13593 cumulative IPC: 1.12573 (Simulation time: 0 hr 7 min 24 sec) 
Heartbeat CPU 0 instructions: 90000000 cycles: 119169044 heartbeat IPC: 0.647687 cumulative IPC: 0.666843 (Simulation time: 0 hr 7 min 25 sec) 
Heartbeat CPU 2 instructions: 50000000 cycles: 123435451 heartbeat IPC: 0.330119 cumulative IPC: 0.329527 (Simulation time: 0 hr 7 min 39 sec) 
Heartbeat CPU 1 instructions: 150000000 cycles: 123558207 heartbeat IPC: 1.17718 cumulative IPC: 1.17763 (Simulation time: 0 hr 7 min 40 sec) 
Heartbeat CPU 3 instructions: 150000002 cycles: 127677638 heartbeat IPC: 1.12133 cumulative IPC: 1.12541 (Simulation time: 0 hr 7 min 53 sec) 
Heartbeat CPU 1 instructions: 160000000 cycles: 132517518 heartbeat IPC: 1.11616 cumulative IPC: 1.17332 (Simulation time: 0 hr 8 min 9 sec) 
Heartbeat CPU 0 instructions: 100000001 cycles: 134616873 heartbeat IPC: 0.64734 cumulative IPC: 0.664524 (Simulation time: 0 hr 8 min 16 sec) 
Heartbeat CPU 3 instructions: 160000000 cycles: 136569163 heartbeat IPC: 1.12467 cumulative IPC: 1.12536 (Simulation time: 0 hr 8 min 23 sec) 
Heartbeat CPU 1 instructions: 170000002 cycles: 141032518 heartbeat IPC: 1.1744 cumulative IPC: 1.17339 (Simulation time: 0 hr 8 min 38 sec) 
Heartbeat CPU 3 instructions: 170000003 cycles: 145401845 heartbeat IPC: 1.13216 cumulative IPC: 1.12579 (Simulation time: 0 hr 8 min 52 sec) 
Heartbeat CPU 1 instructions: 180000003 cycles: 149636744 heartbeat IPC: 1.16222 cumulative IPC: 1.17273 (Simulation time: 0 hr 9 min 7 sec) 
Heartbeat CPU 0 instructions: 110000000 cycles: 150113975 heartbeat IPC: 0.645282 cumulative IPC: 0.662474 (Simulation time: 0 hr 9 min 9 sec) 
Heartbeat CPU 2 instructions: 60000003 cycles: 154271923 heartbeat IPC: 0.324291 cumulative IPC: 0.328447 (Simulation time: 0 hr 9 min 22 sec) 
Heartbeat CPU 3 instructions: 180000003 cycles: 154437336 heartbeat IPC: 1.10675 cumulative IPC: 1.12464 (Simulation time: 0 hr 9 min 23 sec) 
Finished CPU 2 instructions: 50000002 cycles: 152486844 cumulative IPC: 0.327897 (Simulation time: 0 hr 9 min 32 sec) 

ChampSim completed all CPUs

Total Simulation Statistics (not including warmup)

CPU 0 cumulative IPC: 0.661574 instructions: 100881371 cycles: 152486843
L1D TOTAL     ACCESS:   14393393  HIT:   12940632  MISS:    1452761
L1D LOAD      ACCESS:   12890218  HIT:   11533457  MISS:    1356761
L1D RFO       ACCESS:    1503175  HIT:    1407175  MISS:      96000
L1D PREFETCH  ACCESS:          0  HIT:          0  MISS:          0
L1D WRITEBACK ACCESS:          0  HIT:          0  MISS:          0
L1I TOTAL     ACCESS:   18804035  HIT:   18803719  MISS:        316
L1I LOAD      ACCESS:   18804035  HIT:   18803719  MISS:        316
L1I RFO       ACCESS:          0  HIT:          0  MISS:          0
L1I PREFETCH  ACCESS:          0  HIT:          0  MISS:          0
L1I WRITEBACK ACCESS:          0  HIT:          0  MISS:          0
L2C TOTAL     ACCESS:    1569401  HIT:     309275  MISS:    1260126
L2C LOAD      ACCESS:    1357073  HIT:     183857  MISS:    1173216
L2C RFO       ACCESS:      95998  HIT:       9431  MISS:      86567
L2C PREFETCH  ACCESS:          0  HIT:          0  MISS:          0
L2C WRITEBACK ACCESS:     116330  HIT:     115987  MISS:        343
LLC TOTAL     ACCESS:    1364099  HIT:     481265  MISS:     882834
LLC LOAD      ACCESS:    1173217  HIT:     307932  MISS:     865285
LLC RFO       ACCESS:      86567  HIT:      77289  MISS:       9278
LLC PREFETCH  ACCESS:          0  HIT:          0  MISS:          0
LLC WRITEBACK ACCESS:     104315  HIT:      96044  MISS:       8271

CPU 1 cumulative IPC: 1.17233 instructions: 178765567 cycles: 152486843
L1D TOTAL     ACCESS:   11608454  HIT:    2690624  MISS:    8917830
L1D LOAD      ACCESS:    1495207  HIT:    1382321  MISS:     112886
L1D RFO       ACCESS:   10113247  HIT:    1308303  MISS:    8804944
L1D PREFETCH  ACCESS:          0  HIT:          0  MISS:          0
L1D WRITEBACK ACCESS:          0  HIT:          0  MISS:          0
L1I TOTAL     ACCESS:   34049008  HIT:   34040150  MISS:       8858
L1I LOAD      ACCESS:   34049008  HIT:   34040150  MISS:       8858
L1I RFO       ACCESS:          0  HIT:          0  MISS:          0
L1I PREFETCH  ACCESS:          0  HIT:          0  MISS:          0
L1I WRITEBACK ACCESS:          0  HIT:          0  MISS:          0
L2C TOTAL     ACCESS:   17762119  HIT:    8841356  MISS:    8920763
L2C LOAD      ACCESS:     121744  HIT:       3570  MISS:     118174
L2C RFO       ACCESS:    8804945  HIT:       2356  MISS:    8802589
L2C PREFETCH  ACCESS:          0  HIT:          0  MISS:          0
L2C WRITEBACK ACCESS:    8835430  HIT:    8835430  MISS:          0
LLC TOTAL     ACCESS:   17752884  HIT:   17724868  MISS:      28016
LLC LOAD      ACCESS:     118174  HIT:      92831  MISS:      25343
LLC RFO       ACCESS:    8802589  HIT:    8799961  MISS:       2628
LLC PREFETCH  ACCESS:          0  HIT:          0  MISS:          0
LLC WRITEBACK ACCESS:    8832121  HIT:    8832076  MISS:         45

CPU 2 cumulative IPC: 0.327897 instructions: 50000002 cycles: 152486844
L1D TOTAL     ACCESS:   18406999  HIT:   16308181  MISS:    2098818
L1D LOAD      ACCESS:   13038260  HIT:   11135694  MISS:    1902566
L1D RFO       ACCESS:    5368739  HIT:    5172487  MISS:     196252
L1D PREFETCH  ACCESS:          0  HIT:          0  MISS:          0
L1D WRITEBACK ACCESS:          0  HIT:          0  MISS:          0
L1I TOTAL     ACCESS:    9618518  HIT:    9618518  MISS:          0
L1I LOAD      ACCESS:    9618518  HIT:    9618518  MISS:          0
L1I RFO       ACCESS:          0  HIT:          0  MISS:          0
L1I PREFETCH  ACCESS:          0  HIT:          0  MISS:          0
L1I WRITEBACK ACCESS:          0  HIT:          0  MISS:          0
L2C TOTAL     ACCESS:    2379085  HIT:     829012  MISS:    1550073
L2C LOAD      ACCESS:    1902558  HIT:     500805  MISS:    1401753
L2C RFO       ACCESS:     196249  HIT:      48192  MISS:     148057
L2C PREFETCH  ACCESS:          0  HIT:          0  MISS:          0
L2C WRITEBACK ACCESS:     280278  HIT:     280015  MISS:        263
LLC TOTAL     ACCESS:    1748920  HIT:    1117097  MISS:     631823
LLC LOAD      ACCESS:    1401754  HIT:     770443  MISS:     631311
LLC RFO       ACCESS:     148056  HIT:     147670  MISS:        386
LLC PREFETCH  ACCESS:          0  HIT:          0  MISS:          0
LLC WRITEBACK ACCESS:     199110  HIT:     198984  MISS:        126

CPU 3 cumulative IPC: 1.12551 instructions: 171625113 cycles: 152486844
L1D TOTAL     ACCESS:   41605857  HIT:   40858091  MISS:     747766
L1D LOAD      ACCESS:   28636323  HIT:   28179521  MISS:     456802
L1D RFO       ACCESS:   12969534  HIT:   12678570  MISS:     290964
L1D PREFETCH  ACCESS:          0  HIT:          0  MISS:          0
L1D WRITEBACK ACCESS:          0  HIT:          0  MISS:          0
L1I TOTAL     ACCESS:   31639090  HIT:   31621667  MISS:      17423
L1I LOAD      ACCESS:   31639090  HIT:   31621667  MISS:      17423
L1I RFO       ACCESS:          0  HIT:          0  MISS:          0
L1I PREFETCH  ACCESS:          0  HIT:          0  MISS:          0
L1I WRITEBACK ACCESS:          0  HIT:          0  MISS:          0
L2C TOTAL     ACCESS:    1129949  HIT:     794868  MISS:     335081
L2C LOAD      ACCESS:     474225  HIT:     325245  MISS:     148980
L2C RFO       ACCESS:     290964  HIT:     105065  MISS:     185899
L2C PREFETCH  ACCESS:          0  HIT:          0  MISS:          0
L2C WRITEBACK ACCESS:     364760  HIT:     364558  MISS:        202
LLC TOTAL     ACCESS:     557397  HIT:     481551  MISS:      75846
LLC LOAD      ACCESS:     148977  HIT:     102844  MISS:      46133
LLC RFO       ACCESS:     185899  HIT:     164914  MISS:      20985
LLC PREFETCH  ACCESS:          0  HIT:          0  MISS:          0
LLC WRITEBACK ACCESS:     222521  HIT:     213793  MISS:       8728

Region of Interest Statistics

CPU 0 cumulative IPC: 0.666997 instructions: 50000000 cycles: 74962863
L1D TOTAL     ACCESS:    7148357  HIT:    6425879  MISS:     722478
L1D LOAD      ACCESS:    6406715  HIT:    5735188  MISS:     671527
L1D RFO       ACCESS:     741642  HIT:     690691  MISS:      50951
L1D PREFETCH  ACCESS:          0  HIT:          0  MISS:          0
L1D WRITEBACK ACCESS:          0  HIT:          0  MISS:          0
L1D PREFETCH  REQUESTED:          0  ISSUED:          0  USEFUL:          0  USELESS:          0
L1D AVERAGE MISS LATENCY: 273.28 cycles
L1I TOTAL     ACCESS:    9213410  HIT:    9213175  MISS:        235
L1I LOAD      ACCESS:    9213410  HIT:    9213175  MISS:        235
L1I RFO       ACCESS:          0  HIT:          0  MISS:          0
L1I PREFETCH  ACCESS:          0  HIT:          0  MISS:          0
L1I WRITEBACK ACCESS:          0  HIT:          0  MISS:          0
L1I PREFETCH  REQUESTED:          0  ISSUED:          0  USEFUL:          0  USELESS:          0
L1I AVERAGE MISS LATENCY: 289.047 cycles
L2C TOTAL     ACCESS:     782269  HIT:     156461  MISS:     625808
L2C LOAD      ACCESS:     671761  HIT:      92394  MISS:     579367
L2C RFO       ACCESS:      50950  HIT:       4695  MISS:      46255
L2C PREFETCH  ACCESS:          0  HIT:          0  MISS:          0
L2C WRITEBACK ACCESS:      59558  HIT:      59372  MISS:        186
L2C PREFETCH  REQUESTED:          0  ISSUED:          0  USEFUL:          0  USELESS:          0
L2C AVERAGE MISS LATENCY: 279.001 cycles
LLC TOTAL     ACCESS:     679449  HIT:     241028  MISS:     438421
LLC LOAD      ACCESS:     579367  HIT:     150176  MISS:     429191
LLC RFO       ACCESS:      46255  HIT:      41066  MISS:       5189
LLC PREFETCH  ACCESS:          0  HIT:          0  MISS:          0
LLC WRITEBACK ACCESS:      53827  HIT:      49786  MISS:       4041
LLC PREFETCH  REQUESTED:          0  ISSUED:          0  USEFUL:          0  USELESS:          0
LLC AVERAGE MISS LATENCY: 582.341 cycles
Major fault: 0 Minor fault: 2326

CPU 1 cumulative IPC: 1.17915 instructions: 50000000 cycles: 42403352
L1D TOTAL     ACCESS:    3164930  HIT:     662826  MISS:    2502104
L1D LOAD      ACCESS:     369340  HIT:     339263  MISS:      30077
L1D RFO       ACCESS:    2795590  HIT:     323563  MISS:    2472027
L1D PREFETCH  ACCESS:          0  HIT:          0  MISS:          0
L1D WRITEBACK ACCESS:          0  HIT:          0  MISS:          0
L1D PREFETCH  REQUESTED:          0  ISSUED:          0  USEFUL:          0  USELESS:          0
L1D AVERAGE MISS LATENCY: 162.275 cycles
L1I TOTAL     ACCESS:    9524169  HIT:    9521843  MISS:       2326
L1I LOAD      ACCESS:    9524169  HIT:    9521843  MISS:       2326
L1I RFO       ACCESS:          0  HIT:          0  MISS:          0
L1I PREFETCH  ACCESS:          0  HIT:          0  MISS:          0
L1I WRITEBACK ACCESS:          0  HIT:          0  MISS:          0
L1I PREFETCH  REQUESTED:          0  ISSUED:          0  USEFUL:          0  USELESS:          0
L1I AVERAGE MISS LATENCY: 202.764 cycles
L2C TOTAL     ACCESS:    4984753  HIT:    2481992  MISS:    2502761
L2C LOAD      ACCESS:      32403  HIT:        923  MISS:      31480
L2C RFO       ACCESS:    2472027  HIT:        746  MISS:    2471281
L2C PREFETCH  ACCESS:          0  HIT:          0  MISS:          0
L2C WRITEBACK ACCESS:    2480323  HIT:    2480323  MISS:          0
L2C PREFETCH  REQUESTED:          0  ISSUED:          0  USEFUL:          0  USELESS:          0
L2C AVERAGE MISS LATENCY: 108.914 cycles
LLC TOTAL     ACCESS:    4982125  HIT:    4975052  MISS:       7073
LLC LOAD      ACCESS:      31480  HIT:      25127  MISS:       6353
LLC RFO       ACCESS:    2471281  HIT:    2470572  MISS:        709
LLC PREFETCH  ACCESS:          0  HIT:          0  MISS:          0
LLC WRITEBACK ACCESS:    2479364  HIT:    2479353  MISS:         11
LLC PREFETCH  REQUESTED:          0  ISSUED:          0  USEFUL:          0  USELESS:          0
LLC AVERAGE MISS LATENCY: 36096.5 cycles
Major fault: 0 Minor fault: 2093

CPU 2 cumulative IPC: 0.327897 instructions: 50000002 cycles: 152486844
L1D TOTAL     ACCESS:   18406999  HIT:   16308181  MISS:    2098818
L1D LOAD      ACCESS:   13038260  HIT:   11135694  MISS:    1902566
L1D RFO       ACCESS:    5368739  HIT:    5172487  MISS:     196252
L1D PREFETCH  ACCESS:          0  HIT:          0  MISS:          0
L1D WRITEBACK ACCESS:          0  HIT:          0  MISS:          0
L1D PREFETCH  REQUESTED:          0  ISSUED:          0  USEFUL:          0  USELESS:          0
L1D AVERAGE MISS LATENCY: 86.677 cycles
L1I TOTAL     ACCESS:    9618518  HIT:    9618518  MISS:          0
L1I LOAD      ACCESS:    9618518  HIT:    9618518  MISS:          0
L1I RFO       ACCESS:          0  HIT:          0  MISS:          0
L1I PREFETCH  ACCESS:          0  HIT:          0  MISS:          0
L1I WRITEBACK ACCESS:          0  HIT:          0  MISS:          0
L1I PREFETCH  REQUESTED:          0  ISSUED:          0  USEFUL:          0  USELESS:          0
L1I AVERAGE MISS LATENCY: -nan cycles
L2C TOTAL     ACCESS:    2379085  HIT:     829012  MISS:    1550073
L2C LOAD      ACCESS:    1902558  HIT:     500805  MISS:    1401753
L2C RFO       ACCESS:     196249  HIT:      48192  MISS:     148057
L2C PREFETCH  ACCESS:          0  HIT:          0  MISS:          0
L2C WRITEBACK ACCESS:     280278  HIT:     280015  MISS:        263
L2C PREFETCH  REQUESTED:          0  ISSUED:          0  USEFUL:          0  USELESS:          0
L2C AVERAGE MISS LATENCY: 96.6367 cycles
LLC TOTAL     ACCESS:    1748920  HIT:    1117097  MISS:     631823
LLC LOAD      ACCESS:    1401754  HIT:     770443  MISS:     631311
LLC RFO       ACCESS:     148056  HIT:     147670  MISS:        386
LLC PREFETCH  ACCESS:          0  HIT:          0  MISS:          0
LLC WRITEBACK ACCESS:     199110  HIT:     198984  MISS:        126
LLC PREFETCH  REQUESTED:          0  ISSUED:          0  USEFUL:          0  USELESS:          0
LLC AVERAGE MISS LATENCY: 404.086 cycles
Major fault: 0 Minor fault: 9995

CPU 3 cumulative IPC: 1.125 instructions: 50000000 cycles: 44444624
L1D TOTAL     ACCESS:   12220276  HIT:   12000059  MISS:     220217
L1D LOAD      ACCESS:    8374678  HIT:    8240047  MISS:     134631
L1D RFO       ACCESS:    3845598  HIT:    3760012  MISS:      85586
L1D PREFETCH  ACCESS:          0  HIT:          0  MISS:          0
L1D WRITEBACK ACCESS:          0  HIT:          0  MISS:          0
L1D PREFETCH  REQUESTED:          0  ISSUED:          0  USEFUL:          0  USELESS:          0
L1D AVERAGE MISS LATENCY: 146.304 cycles
L1I TOTAL     ACCESS:    9235817  HIT:    9230700  MISS:       5117
L1I LOAD      ACCESS:    9235817  HIT:    9230700  MISS:       5117
L1I RFO       ACCESS:          0  HIT:          0  MISS:          0
L1I PREFETCH  ACCESS:          0  HIT:          0  MISS:          0
L1I WRITEBACK ACCESS:          0  HIT:          0  MISS:          0
L1I PREFETCH  REQUESTED:          0  ISSUED:          0  USEFUL:          0  USELESS:          0
L1I AVERAGE MISS LATENCY: 223.635 cycles
L2C TOTAL     ACCESS:     331838  HIT:     234785  MISS:      97053
L2C LOAD      ACCESS:     139748  HIT:      96496  MISS:      43252
L2C RFO       ACCESS:      85586  HIT:      31833  MISS:      53753
L2C PREFETCH  ACCESS:          0  HIT:          0  MISS:          0
L2C WRITEBACK ACCESS:     106504  HIT:     106456  MISS:         48
L2C PREFETCH  REQUESTED:          0  ISSUED:          0  USEFUL:          0  USELESS:          0
L2C AVERAGE MISS LATENCY: 224.589 cycles
LLC TOTAL     ACCESS:     162044  HIT:     138676  MISS:      23368
LLC LOAD      ACCESS:      43252  HIT:      29086  MISS:      14166
LLC RFO       ACCESS:      53753  HIT:      47108  MISS:       6645
LLC PREFETCH  ACCESS:          0  HIT:          0  MISS:          0
LLC WRITEBACK ACCESS:      65039  HIT:      62482  MISS:       2557
LLC PREFETCH  REQUESTED:          0  ISSUED:          0  USEFUL:          0  USELESS:          0
LLC AVERAGE MISS LATENCY: 10925.7 cycles
Major fault: 0 Minor fault: 825

DRAM Statistics
 CHANNEL 0
 RQ ROW_BUFFER_HIT:     573123  ROW_BUFFER_MISS:    1028179
 DBUS_CONGESTED:     220103
 WQ ROW_BUFFER_HIT:      30877  ROW_BUFFER_MISS:      18776  FULL:          0

 AVG_CONGESTED_CYCLE: 5

CPU 0 Branch Prediction Accuracy: 95.9417% MPKI: 3.50336 Average ROB Occupancy at Mispredict: 182.41

Branch types
NOT_BRANCH: 91857581 91.055%
BRANCH_DIRECT_JUMP: 190569 0.188904%
BRANCH_INDIRECT: 0 0%
BRANCH_CONDITIONAL: 8559213 8.48443%
BRANCH_DIRECT_CALL: 137028 0.135831%
BRANCH_INDIRECT_CALL: 25 2.47816e-05%
BRANCH_RETURN: 137053 0.135856%
BRANCH_OTHER: 0 0%


CPU 1 Branch Prediction Accuracy: 99.6308% MPKI: 0.724849 Average ROB Occupancy at Mispredict: 46.8327

Branch types
NOT_BRANCH: 143669493 80.3675%
BRANCH_DIRECT_JUMP: 188857 0.105645%
BRANCH_INDIRECT: 50288 0.0281307%
BRANCH_CONDITIONAL: 34503702 19.3011%
BRANCH_DIRECT_CALL: 174076 0.0973767%
BRANCH_INDIRECT_CALL: 2538 0.00141974%
BRANCH_RETURN: 176614 0.0987964%
BRANCH_OTHER: 0 0%


CPU 2 Branch Prediction Accuracy: 89.0317% MPKI: 26.8764 Average ROB Occupancy at Mispredict: 15.9099

Branch types
NOT_BRANCH: 37536122 75.0722%
BRANCH_DIRECT_JUMP: 1326513 2.65303%
BRANCH_INDIRECT: 0 0%
BRANCH_CONDITIONAL: 8466211 16.9324%
BRANCH_DIRECT_CALL: 1260574 2.52115%
BRANCH_INDIRECT_CALL: 75016 0.150032%
BRANCH_RETURN: 1335593 2.67119%
BRANCH_OTHER: 0 0%


CPU 3 Branch Prediction Accuracy: 96.5262% MPKI: 4.24767 Average ROB Occupancy at Mispredict: 51.3861

Branch types
NOT_BRANCH: 150447215 87.6604%
BRANCH_DIRECT_JUMP: 650405 0.378968%
BRANCH_INDIRECT: 0 0%
BRANCH_CONDITIONAL: 17247581 10.0496%
BRANCH_DIRECT_CALL: 1640010 0.955577%
BRANCH_INDIRECT_CALL: 0 0%
BRANCH_RETURN: 1640009 0.955576%
BRANCH_OTHER: 0 0%

